/*---------------------------------------------------------------------------*\
| =========                 |                                                 |
| \\      /  F ield         | OpenFOAM: The Open Source CFD Toolbox           |
|  \\    /   O peration     | Version:  2106                                  |
|   \\  /    A nd           | Website:  www.openfoam.com                      |
|    \\/     M anipulation  |                                                 |
\*---------------------------------------------------------------------------*/
Build  : _f815a12b-20210902 OPENFOAM=2106
Arch   : "LSB;label=32;scalar=64"
Exec   : geometricCalc
Date   : Jan 25 2022
Time   : 17:14:03
Host   : ServaasComputer
PID    : 18575
I/O    : uncollated
Case   : /home/servaas/OpenFOAM/servaas-v2106/VolumeAreaVerification
nProcs : 1
trapFpe: Floating point exception trapping enabled (FOAM_SIGFPE).
fileModificationChecking : Monitoring run-time modified files using timeStampMaster (fileModificationSkew 5, maxFileModificationPolls 20)
allowSystemOperations : Allowing user-supplied system call operations

// * * * * * * * * * * * * * * * * * * * * * * * * * * * * * * * * * * * * * //
Create time

Overriding OptimisationSwitches according to controlDict
    fileHandler (unregistered)
    fileModificationSkew 0;

    maxMasterFileBufferSize 1e+09;

    maxThreadFileBufferSize 1e+09;

    mpiBufferSize (unregistered)
Create mesh for time = 0

Calculating zone volumes and areas:
zoneName = zone0: cellZoneVol = 0.08345438\ nFaces = 198\ area = 2.019798\ projected area = 0.826281\ proj Dir = (-1 0 0)\
zoneName = zone1: cellZoneVol = 0.1205452\ nFaces = 278\ area = 2.835878\ projected area = 0.9088627\ proj Dir = (-0.7071068 0 -0.7071068)\
zoneName = zone2: cellZoneVol = 0.09272709\ nFaces = 218\ area = 2.223818\ projected area = 0.91809\ proj Dir = (0 0 -1)\

End
