/*---------------------------------------------------------------------------*\
| =========                 |                                                 |
| \\      /  F ield         | OpenFOAM: The Open Source CFD Toolbox           |
|  \\    /   O peration     | Version:  2106                                  |
|   \\  /    A nd           | Website:  www.openfoam.com                      |
|    \\/     M anipulation  |                                                 |
\*---------------------------------------------------------------------------*/
Build  : _f815a12b-20210902 OPENFOAM=2106
Arch   : "LSB;label=32;scalar=64"
Exec   : topoSet
Date   : Jan 25 2022
Time   : 17:14:02
Host   : ServaasComputer
PID    : 18573
I/O    : uncollated
Case   : /home/servaas/OpenFOAM/servaas-v2106/VolumeAreaVerification
nProcs : 1
trapFpe: Floating point exception trapping enabled (FOAM_SIGFPE).
fileModificationChecking : Monitoring run-time modified files using timeStampMaster (fileModificationSkew 5, maxFileModificationPolls 20)
allowSystemOperations : Allowing user-supplied system call operations

// * * * * * * * * * * * * * * * * * * * * * * * * * * * * * * * * * * * * * //
Create time

Overriding OptimisationSwitches according to controlDict
    fileHandler (unregistered)
    fileModificationSkew 0;

    maxMasterFileBufferSize 1e+09;

    maxThreadFileBufferSize 1e+09;

    mpiBufferSize (unregistered)
Create polyMesh for time = 0

Reading topoSetDict

Time = 0
    mesh not changed.
Created cellZoneSet zone0
    Applying source surfaceToCell
    Adding cells in relation to surface "constant/triSurface/STL_Files/0.stl" ...
    Marked inside/outside using surface intersection in = 0.17 s

    cellZoneSet zone0 now size 81
Created cellZoneSet zone1
    Applying source surfaceToCell
    Adding cells in relation to surface "constant/triSurface/STL_Files/1.stl" ...
    Marked inside/outside using surface intersection in = 0.16 s

    cellZoneSet zone1 now size 117
Created cellZoneSet zone2
    Applying source surfaceToCell
    Adding cells in relation to surface "constant/triSurface/STL_Files/2.stl" ...
    Marked inside/outside using surface intersection in = 0.15 s

    cellZoneSet zone2 now size 90

End

