/*---------------------------------------------------------------------------*\
| =========                 |                                                 |
| \\      /  F ield         | OpenFOAM: The Open Source CFD Toolbox           |
|  \\    /   O peration     | Version:  2106                                  |
|   \\  /    A nd           | Website:  www.openfoam.com                      |
|    \\/     M anipulation  |                                                 |
\*---------------------------------------------------------------------------*/
Build  : _f815a12b-20210902 OPENFOAM=2106
Arch   : "LSB;label=32;scalar=64"
Exec   : simpleFoam
Date   : Jan 25 2022
Time   : 17:14:03
Host   : ServaasComputer
PID    : 18578
I/O    : uncollated
Case   : /home/servaas/OpenFOAM/servaas-v2106/VolumeAreaVerification
nProcs : 1
trapFpe: Floating point exception trapping enabled (FOAM_SIGFPE).
fileModificationChecking : Monitoring run-time modified files using timeStampMaster (fileModificationSkew 5, maxFileModificationPolls 20)
allowSystemOperations : Allowing user-supplied system call operations

// * * * * * * * * * * * * * * * * * * * * * * * * * * * * * * * * * * * * * //
Create time

Overriding OptimisationSwitches according to controlDict
    fileHandler (unregistered)
    fileModificationSkew 0;

    maxMasterFileBufferSize 1e+09;

    maxThreadFileBufferSize 1e+09;

    mpiBufferSize (unregistered)
Create mesh for time = 0


SIMPLE: convergence criteria
    field p	 tolerance 0.0001
    field U	 tolerance 0.0001

Reading field p

Reading field U

Reading/calculating face flux field phi

Selecting incompressible transport model Newtonian
Selecting turbulence model type laminar
Selecting laminar stress model Stokes
Creating MRF zone list from MRFProperties
Creating finite volume options from "system/fvOptions"

Selecting finite volume options type explicitPorositySource
    Source: porosityInzone0
    - selecting cells using cellZone zone0
    - selected 81 cell(s) with volume 0.08345438
Porosity region porosityInzone0:
    selecting model: DarcyForchheimer
    creating porous zone: zone0
    origin: (0 0 0) e1: (-1 0 0) e2: (0 1 0)
    local bounds: (0.101 0.909 0.909)

Selecting finite volume options type explicitPorositySource
    Source: porosityInzone1
    - selecting cells using cellZone zone1
    - selected 117 cell(s) with volume 0.1205452
Porosity region porosityInzone1:
    selecting model: DarcyForchheimer
    creating porous zone: zone1
    origin: (0 0 0) e1: (-1 0 -1) e2: (0 1 0)
    local bounds: (0.2142534 0.909 0.999849)

Selecting finite volume options type explicitPorositySource
    Source: porosityInzone2
    - selecting cells using cellZone zone2
    - selected 90 cell(s) with volume 0.09272709
Porosity region porosityInzone2:
    selecting model: DarcyForchheimer
    creating porous zone: zone2
    origin: (0 0 0) e1: (0 0 -1) e2: (0 1 0)
    local bounds: (0.101 0.909 1.01)


Starting time loop

Time = 1

DILUPBiCGStab:  Solving for Ux, Initial residual = 1, Final residual = 0.0003795434, No Iterations 1
DILUPBiCGStab:  Solving for Uy, Initial residual = 0.9999922, Final residual = 0.0002153488, No Iterations 1
DILUPBiCGStab:  Solving for Uz, Initial residual = 0.9999384, Final residual = 0.001462301, No Iterations 1
GAMG:  Solving for p, Initial residual = 1, Final residual = 0.002844905, No Iterations 4
GAMG:  Solving for p, Initial residual = 0.0003784802, Final residual = 1.572239e-06, No Iterations 4
time step continuity errors : sum local = 1.81135e-06, global = -1.075236e-06, cumulative = -1.075236e-06
ExecutionTime = 0.08 s  ClockTime = 0 s

Time = 2

DILUPBiCGStab:  Solving for Ux, Initial residual = 0.2506246, Final residual = 0.0204908, No Iterations 1
DILUPBiCGStab:  Solving for Uy, Initial residual = 0.3557771, Final residual = 0.02948638, No Iterations 1
DILUPBiCGStab:  Solving for Uz, Initial residual = 0.3557772, Final residual = 0.02948639, No Iterations 1
GAMG:  Solving for p, Initial residual = 0.9694762, Final residual = 0.003178925, No Iterations 4
GAMG:  Solving for p, Initial residual = 0.0003974545, Final residual = 9.330851e-07, No Iterations 4
time step continuity errors : sum local = 7.903202e-07, global = 2.540659e-08, cumulative = -1.049829e-06
ExecutionTime = 0.12 s  ClockTime = 0 s

Time = 3

DILUPBiCGStab:  Solving for Ux, Initial residual = 0.173049, Final residual = 0.002958217, No Iterations 1
DILUPBiCGStab:  Solving for Uy, Initial residual = 0.1968231, Final residual = 0.01617167, No Iterations 1
DILUPBiCGStab:  Solving for Uz, Initial residual = 0.1968484, Final residual = 0.01617142, No Iterations 1
GAMG:  Solving for p, Initial residual = 0.1055913, Final residual = 0.0002959565, No Iterations 3
GAMG:  Solving for p, Initial residual = 0.0003444431, Final residual = 9.146167e-07, No Iterations 4
time step continuity errors : sum local = 5.602536e-07, global = 2.536906e-07, cumulative = -7.961388e-07
ExecutionTime = 0.14 s  ClockTime = 0 s

Time = 4

DILUPBiCGStab:  Solving for Ux, Initial residual = 0.1296372, Final residual = 0.00173966, No Iterations 1
DILUPBiCGStab:  Solving for Uy, Initial residual = 0.1369916, Final residual = 0.01147443, No Iterations 1
DILUPBiCGStab:  Solving for Uz, Initial residual = 0.1370283, Final residual = 0.01147767, No Iterations 1
GAMG:  Solving for p, Initial residual = 0.09427247, Final residual = 0.0003206087, No Iterations 3
GAMG:  Solving for p, Initial residual = 0.0004385649, Final residual = 1.496303e-06, No Iterations 4
time step continuity errors : sum local = 7.996751e-07, global = 4.797308e-07, cumulative = -3.16408e-07
ExecutionTime = 0.16 s  ClockTime = 0 s

Time = 5

DILUPBiCGStab:  Solving for Ux, Initial residual = 0.1019982, Final residual = 0.001164989, No Iterations 1
DILUPBiCGStab:  Solving for Uy, Initial residual = 0.1246629, Final residual = 0.01065036, No Iterations 1
DILUPBiCGStab:  Solving for Uz, Initial residual = 0.1248006, Final residual = 0.01066269, No Iterations 1
GAMG:  Solving for p, Initial residual = 0.1132473, Final residual = 0.000311556, No Iterations 3
GAMG:  Solving for p, Initial residual = 0.0003645444, Final residual = 1.210708e-06, No Iterations 4
time step continuity errors : sum local = 6.304829e-07, global = 3.929995e-07, cumulative = 7.659148e-08
ExecutionTime = 0.2 s  ClockTime = 0 s

Time = 6

DILUPBiCGStab:  Solving for Ux, Initial residual = 0.08675533, Final residual = 0.008456756, No Iterations 1
DILUPBiCGStab:  Solving for Uy, Initial residual = 0.1287858, Final residual = 0.01021464, No Iterations 1
DILUPBiCGStab:  Solving for Uz, Initial residual = 0.1292299, Final residual = 0.01026022, No Iterations 1
GAMG:  Solving for p, Initial residual = 0.1300764, Final residual = 0.001094088, No Iterations 2
GAMG:  Solving for p, Initial residual = 0.001086615, Final residual = 2.846984e-06, No Iterations 4
time step continuity errors : sum local = 1.582622e-06, global = 7.055115e-07, cumulative = 7.82103e-07
ExecutionTime = 0.22 s  ClockTime = 0 s

Time = 7

DILUPBiCGStab:  Solving for Ux, Initial residual = 0.07695204, Final residual = 0.007099589, No Iterations 1
DILUPBiCGStab:  Solving for Uy, Initial residual = 0.1223149, Final residual = 0.00893373, No Iterations 1
DILUPBiCGStab:  Solving for Uz, Initial residual = 0.123421, Final residual = 0.009043679, No Iterations 1
GAMG:  Solving for p, Initial residual = 0.1327284, Final residual = 0.001001742, No Iterations 2
GAMG:  Solving for p, Initial residual = 0.0009357386, Final residual = 2.122475e-06, No Iterations 4
time step continuity errors : sum local = 1.279178e-06, global = 2.384965e-07, cumulative = 1.020599e-06
ExecutionTime = 0.25 s  ClockTime = 1 s

Time = 8

DILUPBiCGStab:  Solving for Ux, Initial residual = 0.07092284, Final residual = 0.006267379, No Iterations 1
DILUPBiCGStab:  Solving for Uy, Initial residual = 0.1120105, Final residual = 0.007670978, No Iterations 1
DILUPBiCGStab:  Solving for Uz, Initial residual = 0.114213, Final residual = 0.007865515, No Iterations 1
GAMG:  Solving for p, Initial residual = 0.12831, Final residual = 0.0008604609, No Iterations 2
GAMG:  Solving for p, Initial residual = 0.0008114173, Final residual = 7.444371e-06, No Iterations 3
time step continuity errors : sum local = 4.711074e-06, global = 5.449882e-07, cumulative = 1.565588e-06
ExecutionTime = 0.28 s  ClockTime = 1 s

Time = 9

DILUPBiCGStab:  Solving for Ux, Initial residual = 0.06612729, Final residual = 0.005658618, No Iterations 1
DILUPBiCGStab:  Solving for Uy, Initial residual = 0.102446, Final residual = 0.006734716, No Iterations 1
DILUPBiCGStab:  Solving for Uz, Initial residual = 0.1056652, Final residual = 0.006994405, No Iterations 1
GAMG:  Solving for p, Initial residual = 0.1244888, Final residual = 0.0007144808, No Iterations 2
GAMG:  Solving for p, Initial residual = 0.000688286, Final residual = 5.51949e-06, No Iterations 3
time step continuity errors : sum local = 3.578779e-06, global = 2.663362e-07, cumulative = 1.831924e-06
ExecutionTime = 0.3 s  ClockTime = 1 s

Time = 10

DILUPBiCGStab:  Solving for Ux, Initial residual = 0.06183475, Final residual = 0.005199135, No Iterations 1
DILUPBiCGStab:  Solving for Uy, Initial residual = 0.09562332, Final residual = 0.006005437, No Iterations 1
DILUPBiCGStab:  Solving for Uz, Initial residual = 0.09939141, Final residual = 0.006303099, No Iterations 1
GAMG:  Solving for p, Initial residual = 0.1216815, Final residual = 0.0006705576, No Iterations 2
GAMG:  Solving for p, Initial residual = 0.0006540021, Final residual = 6.538832e-06, No Iterations 3
time step continuity errors : sum local = 4.262804e-06, global = 5.167411e-08, cumulative = 1.883598e-06
ExecutionTime = 0.32 s  ClockTime = 1 s

Time = 11

DILUPBiCGStab:  Solving for Ux, Initial residual = 0.05866219, Final residual = 0.004863249, No Iterations 1
DILUPBiCGStab:  Solving for Uy, Initial residual = 0.08872622, Final residual = 0.005391987, No Iterations 1
DILUPBiCGStab:  Solving for Uz, Initial residual = 0.09274808, Final residual = 0.00571108, No Iterations 1
GAMG:  Solving for p, Initial residual = 0.1192482, Final residual = 0.0006657274, No Iterations 2
GAMG:  Solving for p, Initial residual = 0.0006524165, Final residual = 1.604972e-06, No Iterations 4
time step continuity errors : sum local = 1.037579e-06, global = 2.748225e-08, cumulative = 1.91108e-06
ExecutionTime = 0.34 s  ClockTime = 1 s

Time = 12

DILUPBiCGStab:  Solving for Ux, Initial residual = 0.05649356, Final residual = 0.0045978, No Iterations 1
DILUPBiCGStab:  Solving for Uy, Initial residual = 0.08257971, Final residual = 0.00490053, No Iterations 1
DILUPBiCGStab:  Solving for Uz, Initial residual = 0.08666959, Final residual = 0.005175268, No Iterations 1
GAMG:  Solving for p, Initial residual = 0.1166132, Final residual = 0.0006133285, No Iterations 2
GAMG:  Solving for p, Initial residual = 0.0006032333, Final residual = 1.475241e-06, No Iterations 4
time step continuity errors : sum local = 9.45558e-07, global = 4.571176e-08, cumulative = 1.956792e-06
ExecutionTime = 0.36 s  ClockTime = 1 s

Time = 13

DILUPBiCGStab:  Solving for Ux, Initial residual = 0.05508733, Final residual = 0.004378007, No Iterations 1
DILUPBiCGStab:  Solving for Uy, Initial residual = 0.07769997, Final residual = 0.004521593, No Iterations 1
DILUPBiCGStab:  Solving for Uz, Initial residual = 0.08109397, Final residual = 0.004663906, No Iterations 1
GAMG:  Solving for p, Initial residual = 0.1135187, Final residual = 0.0005418258, No Iterations 2
GAMG:  Solving for p, Initial residual = 0.0005365255, Final residual = 1.313625e-06, No Iterations 4
time step continuity errors : sum local = 8.328646e-07, global = 1.009519e-07, cumulative = 2.057744e-06
ExecutionTime = 0.39 s  ClockTime = 1 s

Time = 14

DILUPBiCGStab:  Solving for Ux, Initial residual = 0.05408478, Final residual = 0.004177018, No Iterations 1
DILUPBiCGStab:  Solving for Uy, Initial residual = 0.07443223, Final residual = 0.004222138, No Iterations 1
DILUPBiCGStab:  Solving for Uz, Initial residual = 0.07657505, Final residual = 0.004235913, No Iterations 1
GAMG:  Solving for p, Initial residual = 0.1121696, Final residual = 0.0004756513, No Iterations 2
GAMG:  Solving for p, Initial residual = 0.0004753971, Final residual = 1.184717e-06, No Iterations 4
time step continuity errors : sum local = 7.362214e-07, global = 1.924001e-07, cumulative = 2.250144e-06
ExecutionTime = 0.43 s  ClockTime = 1 s

Time = 15

DILUPBiCGStab:  Solving for Ux, Initial residual = 0.05328334, Final residual = 0.003995126, No Iterations 1
DILUPBiCGStab:  Solving for Uy, Initial residual = 0.0716151, Final residual = 0.003949796, No Iterations 1
DILUPBiCGStab:  Solving for Uz, Initial residual = 0.07242162, Final residual = 0.003867701, No Iterations 1
GAMG:  Solving for p, Initial residual = 0.113631, Final residual = 0.0004570582, No Iterations 2
GAMG:  Solving for p, Initial residual = 0.0004597797, Final residual = 1.283395e-06, No Iterations 4
time step continuity errors : sum local = 7.796689e-07, global = 3.12304e-07, cumulative = 2.562448e-06
ExecutionTime = 0.44 s  ClockTime = 1 s

Time = 16

DILUPBiCGStab:  Solving for Ux, Initial residual = 0.05315963, Final residual = 0.003836164, No Iterations 1
DILUPBiCGStab:  Solving for Uy, Initial residual = 0.06881116, Final residual = 0.003667557, No Iterations 1
DILUPBiCGStab:  Solving for Uz, Initial residual = 0.06822538, Final residual = 0.003532644, No Iterations 1
GAMG:  Solving for p, Initial residual = 0.118006, Final residual = 0.0004830682, No Iterations 2
GAMG:  Solving for p, Initial residual = 0.0004898552, Final residual = 1.488764e-06, No Iterations 4
time step continuity errors : sum local = 8.71242e-07, global = 4.017571e-07, cumulative = 2.964205e-06
ExecutionTime = 0.48 s  ClockTime = 1 s

Time = 17

DILUPBiCGStab:  Solving for Ux, Initial residual = 0.05304279, Final residual = 0.003663137, No Iterations 1
DILUPBiCGStab:  Solving for Uy, Initial residual = 0.06570892, Final residual = 0.003379673, No Iterations 1
DILUPBiCGStab:  Solving for Uz, Initial residual = 0.06412848, Final residual = 0.003214598, No Iterations 1
GAMG:  Solving for p, Initial residual = 0.1309772, Final residual = 0.0005743385, No Iterations 2
GAMG:  Solving for p, Initial residual = 0.0005808582, Final residual = 1.91661e-06, No Iterations 4
time step continuity errors : sum local = 9.941272e-07, global = 5.211535e-07, cumulative = 3.485358e-06
ExecutionTime = 0.5 s  ClockTime = 1 s

Time = 18

DILUPBiCGStab:  Solving for Ux, Initial residual = 0.05287228, Final residual = 0.003493438, No Iterations 1
DILUPBiCGStab:  Solving for Uy, Initial residual = 0.06251105, Final residual = 0.003087646, No Iterations 1
DILUPBiCGStab:  Solving for Uz, Initial residual = 0.06027731, Final residual = 0.002902558, No Iterations 1
GAMG:  Solving for p, Initial residual = 0.1386784, Final residual = 0.0006261191, No Iterations 2
GAMG:  Solving for p, Initial residual = 0.0006253512, Final residual = 2.126487e-06, No Iterations 4
time step continuity errors : sum local = 9.951348e-07, global = 5.374867e-07, cumulative = 4.022845e-06
ExecutionTime = 0.53 s  ClockTime = 1 s

Time = 19

DILUPBiCGStab:  Solving for Ux, Initial residual = 0.05267197, Final residual = 0.003339185, No Iterations 1
DILUPBiCGStab:  Solving for Uy, Initial residual = 0.05996533, Final residual = 0.002855486, No Iterations 1
DILUPBiCGStab:  Solving for Uz, Initial residual = 0.05714899, Final residual = 0.002642933, No Iterations 1
GAMG:  Solving for p, Initial residual = 0.1357625, Final residual = 0.0005696679, No Iterations 2
GAMG:  Solving for p, Initial residual = 0.00055697, Final residual = 1.92452e-06, No Iterations 4
time step continuity errors : sum local = 8.786088e-07, global = 4.479369e-07, cumulative = 4.470782e-06
ExecutionTime = 0.55 s  ClockTime = 1 s

Time = 20

DILUPBiCGStab:  Solving for Ux, Initial residual = 0.05330974, Final residual = 0.003276101, No Iterations 1
DILUPBiCGStab:  Solving for Uy, Initial residual = 0.05847356, Final residual = 0.002713431, No Iterations 1
DILUPBiCGStab:  Solving for Uz, Initial residual = 0.05495456, Final residual = 0.002463097, No Iterations 1
GAMG:  Solving for p, Initial residual = 0.1324051, Final residual = 0.0005443822, No Iterations 2
GAMG:  Solving for p, Initial residual = 0.000527449, Final residual = 1.852066e-06, No Iterations 4
time step continuity errors : sum local = 8.469061e-07, global = 4.442466e-07, cumulative = 4.915029e-06
ExecutionTime = 0.57 s  ClockTime = 1 s

Time = 21

DILUPBiCGStab:  Solving for Ux, Initial residual = 0.05495819, Final residual = 0.003102817, No Iterations 1
DILUPBiCGStab:  Solving for Uy, Initial residual = 0.05780289, Final residual = 0.002572373, No Iterations 1
DILUPBiCGStab:  Solving for Uz, Initial residual = 0.05386602, Final residual = 0.002318388, No Iterations 1
GAMG:  Solving for p, Initial residual = 0.1317824, Final residual = 0.0005089811, No Iterations 2
GAMG:  Solving for p, Initial residual = 0.0004912933, Final residual = 1.651795e-06, No Iterations 4
time step continuity errors : sum local = 7.664365e-07, global = 3.976868e-07, cumulative = 5.312715e-06
ExecutionTime = 0.6 s  ClockTime = 1 s

Time = 22

DILUPBiCGStab:  Solving for Ux, Initial residual = 0.0566907, Final residual = 0.002954168, No Iterations 1
DILUPBiCGStab:  Solving for Uy, Initial residual = 0.05835856, Final residual = 0.00249759, No Iterations 1
DILUPBiCGStab:  Solving for Uz, Initial residual = 0.05349263, Final residual = 0.002213816, No Iterations 1
GAMG:  Solving for p, Initial residual = 0.126101, Final residual = 0.0004704977, No Iterations 2
GAMG:  Solving for p, Initial residual = 0.0004497026, Final residual = 1.436515e-06, No Iterations 4
time step continuity errors : sum local = 6.717616e-07, global = 3.524045e-07, cumulative = 5.66512e-06
ExecutionTime = 0.63 s  ClockTime = 1 s

Time = 23

DILUPBiCGStab:  Solving for Ux, Initial residual = 0.05695609, Final residual = 0.00281021, No Iterations 1
DILUPBiCGStab:  Solving for Uy, Initial residual = 0.06014575, Final residual = 0.002420054, No Iterations 1
DILUPBiCGStab:  Solving for Uz, Initial residual = 0.05357566, Final residual = 0.002130988, No Iterations 1
GAMG:  Solving for p, Initial residual = 0.1202015, Final residual = 0.0004084342, No Iterations 2
GAMG:  Solving for p, Initial residual = 0.0003935698, Final residual = 1.214729e-06, No Iterations 4
time step continuity errors : sum local = 5.707466e-07, global = 2.882538e-07, cumulative = 5.953374e-06
ExecutionTime = 0.65 s  ClockTime = 1 s

Time = 24

DILUPBiCGStab:  Solving for Ux, Initial residual = 0.0570638, Final residual = 0.002597536, No Iterations 1
DILUPBiCGStab:  Solving for Uy, Initial residual = 0.06096563, Final residual = 0.002305426, No Iterations 1
DILUPBiCGStab:  Solving for Uz, Initial residual = 0.05308197, Final residual = 0.002051901, No Iterations 1
GAMG:  Solving for p, Initial residual = 0.1169291, Final residual = 0.0003672433, No Iterations 2
GAMG:  Solving for p, Initial residual = 0.0003541476, Final residual = 1.003775e-06, No Iterations 4
time step continuity errors : sum local = 4.681466e-07, global = 2.269522e-07, cumulative = 6.180326e-06
ExecutionTime = 0.67 s  ClockTime = 1 s

Time = 25

DILUPBiCGStab:  Solving for Ux, Initial residual = 0.05675719, Final residual = 0.002407794, No Iterations 1
DILUPBiCGStab:  Solving for Uy, Initial residual = 0.06136616, Final residual = 0.002172302, No Iterations 1
DILUPBiCGStab:  Solving for Uz, Initial residual = 0.05216452, Final residual = 0.001940683, No Iterations 1
GAMG:  Solving for p, Initial residual = 0.1048593, Final residual = 0.0003545098, No Iterations 2
GAMG:  Solving for p, Initial residual = 0.0003432615, Final residual = 9.620992e-07, No Iterations 4
time step continuity errors : sum local = 4.412348e-07, global = 2.253218e-07, cumulative = 6.405648e-06
ExecutionTime = 0.7 s  ClockTime = 1 s

Time = 26

DILUPBiCGStab:  Solving for Ux, Initial residual = 0.05503254, Final residual = 0.00215723, No Iterations 1
DILUPBiCGStab:  Solving for Uy, Initial residual = 0.06047503, Final residual = 0.001978642, No Iterations 1
DILUPBiCGStab:  Solving for Uz, Initial residual = 0.05063373, Final residual = 0.001801275, No Iterations 1
GAMG:  Solving for p, Initial residual = 0.09749529, Final residual = 0.000315403, No Iterations 2
GAMG:  Solving for p, Initial residual = 0.0003083217, Final residual = 8.162211e-07, No Iterations 4
time step continuity errors : sum local = 3.678601e-07, global = 1.818955e-07, cumulative = 6.587543e-06
ExecutionTime = 0.72 s  ClockTime = 1 s

Time = 27

DILUPBiCGStab:  Solving for Ux, Initial residual = 0.05278724, Final residual = 0.001902604, No Iterations 1
DILUPBiCGStab:  Solving for Uy, Initial residual = 0.05890639, Final residual = 0.001759868, No Iterations 1
DILUPBiCGStab:  Solving for Uz, Initial residual = 0.048871, Final residual = 0.001658557, No Iterations 1
GAMG:  Solving for p, Initial residual = 0.08785574, Final residual = 0.000284462, No Iterations 2
GAMG:  Solving for p, Initial residual = 0.0002798042, Final residual = 7.117336e-07, No Iterations 4
time step continuity errors : sum local = 3.13576e-07, global = 1.451625e-07, cumulative = 6.732706e-06
ExecutionTime = 0.75 s  ClockTime = 1 s

Time = 28

DILUPBiCGStab:  Solving for Ux, Initial residual = 0.05051162, Final residual = 0.00171886, No Iterations 1
DILUPBiCGStab:  Solving for Uy, Initial residual = 0.05726432, Final residual = 0.001567373, No Iterations 1
DILUPBiCGStab:  Solving for Uz, Initial residual = 0.04733386, Final residual = 0.00150512, No Iterations 1
GAMG:  Solving for p, Initial residual = 0.07791299, Final residual = 0.0002476839, No Iterations 2
GAMG:  Solving for p, Initial residual = 0.0002448583, Final residual = 6.147397e-07, No Iterations 4
time step continuity errors : sum local = 2.609902e-07, global = 9.82319e-08, cumulative = 6.830938e-06
ExecutionTime = 0.77 s  ClockTime = 1 s

Time = 29

DILUPBiCGStab:  Solving for Ux, Initial residual = 0.04663549, Final residual = 0.001472037, No Iterations 1
DILUPBiCGStab:  Solving for Uy, Initial residual = 0.05455316, Final residual = 0.001360186, No Iterations 1
DILUPBiCGStab:  Solving for Uz, Initial residual = 0.04445217, Final residual = 0.001337196, No Iterations 1
GAMG:  Solving for p, Initial residual = 0.07299572, Final residual = 0.0002111588, No Iterations 2
GAMG:  Solving for p, Initial residual = 0.0002098555, Final residual = 5.307238e-07, No Iterations 4
time step continuity errors : sum local = 2.172741e-07, global = 4.452048e-08, cumulative = 6.875458e-06
ExecutionTime = 0.8 s  ClockTime = 1 s

Time = 30

DILUPBiCGStab:  Solving for Ux, Initial residual = 0.0421026, Final residual = 0.001191307, No Iterations 1
DILUPBiCGStab:  Solving for Uy, Initial residual = 0.05062349, Final residual = 0.001141625, No Iterations 1
DILUPBiCGStab:  Solving for Uz, Initial residual = 0.04110421, Final residual = 0.001145207, No Iterations 1
GAMG:  Solving for p, Initial residual = 0.06912445, Final residual = 0.0001889592, No Iterations 2
GAMG:  Solving for p, Initial residual = 0.0001888454, Final residual = 5.048491e-07, No Iterations 4
time step continuity errors : sum local = 1.990632e-07, global = -9.00661e-09, cumulative = 6.866452e-06
ExecutionTime = 0.83 s  ClockTime = 1 s

Time = 31

DILUPBiCGStab:  Solving for Ux, Initial residual = 0.03732007, Final residual = 0.0009351472, No Iterations 1
DILUPBiCGStab:  Solving for Uy, Initial residual = 0.04761641, Final residual = 0.0009667211, No Iterations 1
DILUPBiCGStab:  Solving for Uz, Initial residual = 0.03838439, Final residual = 0.0009487704, No Iterations 1
GAMG:  Solving for p, Initial residual = 0.06442335, Final residual = 0.0001654249, No Iterations 2
GAMG:  Solving for p, Initial residual = 0.0001663275, Final residual = 5.006948e-07, No Iterations 4
time step continuity errors : sum local = 1.886717e-07, global = -9.069398e-08, cumulative = 6.775758e-06
ExecutionTime = 0.85 s  ClockTime = 1 s

Time = 32

DILUPBiCGStab:  Solving for Ux, Initial residual = 0.03284707, Final residual = 0.0007150225, No Iterations 1
DILUPBiCGStab:  Solving for Uy, Initial residual = 0.04462884, Final residual = 0.0008588468, No Iterations 1
DILUPBiCGStab:  Solving for Uz, Initial residual = 0.03566415, Final residual = 0.0007785382, No Iterations 1
GAMG:  Solving for p, Initial residual = 0.06128791, Final residual = 0.0001567332, No Iterations 2
GAMG:  Solving for p, Initial residual = 0.0001586337, Final residual = 6.765751e-07, No Iterations 4
time step continuity errors : sum local = 2.424199e-07, global = -1.799826e-07, cumulative = 6.595775e-06
ExecutionTime = 0.88 s  ClockTime = 1 s

Time = 33

DILUPBiCGStab:  Solving for Ux, Initial residual = 0.02815217, Final residual = 0.0005539674, No Iterations 1
DILUPBiCGStab:  Solving for Uy, Initial residual = 0.04331701, Final residual = 0.0007471535, No Iterations 1
DILUPBiCGStab:  Solving for Uz, Initial residual = 0.03303488, Final residual = 0.0006277458, No Iterations 1
GAMG:  Solving for p, Initial residual = 0.05993515, Final residual = 0.0001998208, No Iterations 2
GAMG:  Solving for p, Initial residual = 0.0002031267, Final residual = 8.563981e-07, No Iterations 4
time step continuity errors : sum local = 2.920993e-07, global = -2.139237e-07, cumulative = 6.381851e-06
ExecutionTime = 0.91 s  ClockTime = 1 s

Time = 34

DILUPBiCGStab:  Solving for Ux, Initial residual = 0.02310422, Final residual = 0.00039114, No Iterations 1
DILUPBiCGStab:  Solving for Uy, Initial residual = 0.04165582, Final residual = 0.0006007162, No Iterations 1
DILUPBiCGStab:  Solving for Uz, Initial residual = 0.03011182, Final residual = 0.0004748392, No Iterations 1
GAMG:  Solving for p, Initial residual = 0.0567568, Final residual = 0.0002193486, No Iterations 2
GAMG:  Solving for p, Initial residual = 0.0002233422, Final residual = 9.448736e-07, No Iterations 4
time step continuity errors : sum local = 3.072892e-07, global = -2.217917e-07, cumulative = 6.160059e-06
ExecutionTime = 0.93 s  ClockTime = 1 s

Time = 35

DILUPBiCGStab:  Solving for Ux, Initial residual = 0.01903067, Final residual = 0.0002622621, No Iterations 1
DILUPBiCGStab:  Solving for Uy, Initial residual = 0.03904639, Final residual = 0.0004791411, No Iterations 1
DILUPBiCGStab:  Solving for Uz, Initial residual = 0.02723881, Final residual = 0.0003494058, No Iterations 1
GAMG:  Solving for p, Initial residual = 0.05215812, Final residual = 0.0001925926, No Iterations 2
GAMG:  Solving for p, Initial residual = 0.0001965007, Final residual = 8.106045e-07, No Iterations 4
time step continuity errors : sum local = 2.526984e-07, global = -1.811552e-07, cumulative = 5.978904e-06
ExecutionTime = 0.95 s  ClockTime = 1 s

Time = 36

DILUPBiCGStab:  Solving for Ux, Initial residual = 0.01576674, Final residual = 0.0001726274, No Iterations 1
DILUPBiCGStab:  Solving for Uy, Initial residual = 0.03547884, Final residual = 0.0003574676, No Iterations 1
DILUPBiCGStab:  Solving for Uz, Initial residual = 0.0236664, Final residual = 0.0002683087, No Iterations 1
GAMG:  Solving for p, Initial residual = 0.04901872, Final residual = 0.0001707921, No Iterations 2
GAMG:  Solving for p, Initial residual = 0.0001744535, Final residual = 7.094127e-07, No Iterations 4
time step continuity errors : sum local = 2.114426e-07, global = -1.512081e-07, cumulative = 5.827696e-06
ExecutionTime = 0.97 s  ClockTime = 1 s

Time = 37

DILUPBiCGStab:  Solving for Ux, Initial residual = 0.01241513, Final residual = 0.0001241888, No Iterations 1
DILUPBiCGStab:  Solving for Uy, Initial residual = 0.0304301, Final residual = 0.0002982333, No Iterations 1
DILUPBiCGStab:  Solving for Uz, Initial residual = 0.02058661, Final residual = 0.0001958392, No Iterations 1
GAMG:  Solving for p, Initial residual = 0.04624638, Final residual = 0.0001439421, No Iterations 2
GAMG:  Solving for p, Initial residual = 0.0001472116, Final residual = 5.50944e-07, No Iterations 4
time step continuity errors : sum local = 1.562485e-07, global = -1.110273e-07, cumulative = 5.716669e-06
ExecutionTime = 1 s  ClockTime = 1 s

Time = 38

DILUPBiCGStab:  Solving for Ux, Initial residual = 0.01031818, Final residual = 9.435918e-05, No Iterations 1
DILUPBiCGStab:  Solving for Uy, Initial residual = 0.02602626, Final residual = 0.0002259945, No Iterations 1
DILUPBiCGStab:  Solving for Uz, Initial residual = 0.01781893, Final residual = 0.0001470196, No Iterations 1
GAMG:  Solving for p, Initial residual = 0.04265288, Final residual = 0.0001234854, No Iterations 2
GAMG:  Solving for p, Initial residual = 0.00012637, Final residual = 4.523797e-07, No Iterations 4
time step continuity errors : sum local = 1.235834e-07, global = -8.671948e-08, cumulative = 5.629949e-06
ExecutionTime = 1.03 s  ClockTime = 1 s

Time = 39

DILUPBiCGStab:  Solving for Ux, Initial residual = 0.008148958, Final residual = 7.778356e-05, No Iterations 1
DILUPBiCGStab:  Solving for Uy, Initial residual = 0.02188829, Final residual = 0.0001964783, No Iterations 1
DILUPBiCGStab:  Solving for Uz, Initial residual = 0.01505753, Final residual = 0.0001172866, No Iterations 1
GAMG:  Solving for p, Initial residual = 0.0393748, Final residual = 0.0001117409, No Iterations 2
GAMG:  Solving for p, Initial residual = 0.0001144041, Final residual = 4.058013e-07, No Iterations 4
time step continuity errors : sum local = 1.061889e-07, global = -7.397493e-08, cumulative = 5.555975e-06
ExecutionTime = 1.06 s  ClockTime = 1 s

Time = 40

DILUPBiCGStab:  Solving for Ux, Initial residual = 0.006827122, Final residual = 7.100487e-05, No Iterations 1
DILUPBiCGStab:  Solving for Uy, Initial residual = 0.01857536, Final residual = 0.0001585805, No Iterations 1
DILUPBiCGStab:  Solving for Uz, Initial residual = 0.012189, Final residual = 0.0001090788, No Iterations 1
GAMG:  Solving for p, Initial residual = 0.03657251, Final residual = 0.0001019169, No Iterations 2
GAMG:  Solving for p, Initial residual = 0.0001043826, Final residual = 3.80918e-07, No Iterations 4
time step continuity errors : sum local = 9.544907e-08, global = -6.595111e-08, cumulative = 5.490023e-06
ExecutionTime = 1.1 s  ClockTime = 1 s

Time = 41

DILUPBiCGStab:  Solving for Ux, Initial residual = 0.005636324, Final residual = 5.961206e-05, No Iterations 1
DILUPBiCGStab:  Solving for Uy, Initial residual = 0.01582115, Final residual = 0.0001323682, No Iterations 1
DILUPBiCGStab:  Solving for Uz, Initial residual = 0.009901979, Final residual = 9.265557e-05, No Iterations 1
GAMG:  Solving for p, Initial residual = 0.03378301, Final residual = 9.381493e-05, No Iterations 2
GAMG:  Solving for p, Initial residual = 9.600225e-05, Final residual = 3.667542e-07, No Iterations 4
time step continuity errors : sum local = 8.86603e-08, global = -6.11123e-08, cumulative = 5.428911e-06
ExecutionTime = 1.12 s  ClockTime = 1 s

Time = 42

DILUPBiCGStab:  Solving for Ux, Initial residual = 0.004312912, Final residual = 5.958314e-05, No Iterations 1
DILUPBiCGStab:  Solving for Uy, Initial residual = 0.01269694, Final residual = 0.0001108531, No Iterations 1
DILUPBiCGStab:  Solving for Uz, Initial residual = 0.008393841, Final residual = 9.175434e-05, No Iterations 1
GAMG:  Solving for p, Initial residual = 0.03107671, Final residual = 8.350762e-05, No Iterations 2
GAMG:  Solving for p, Initial residual = 8.522298e-05, Final residual = 3.245814e-07, No Iterations 4
time step continuity errors : sum local = 7.580866e-08, global = -5.203787e-08, cumulative = 5.376873e-06
ExecutionTime = 1.15 s  ClockTime = 1 s

Time = 43

DILUPBiCGStab:  Solving for Ux, Initial residual = 0.00334283, Final residual = 5.369267e-05, No Iterations 1
DILUPBiCGStab:  Solving for Uy, Initial residual = 0.01053135, Final residual = 9.499751e-05, No Iterations 1
DILUPBiCGStab:  Solving for Uz, Initial residual = 0.006842478, Final residual = 8.91221e-05, No Iterations 1
GAMG:  Solving for p, Initial residual = 0.02738281, Final residual = 7.813802e-05, No Iterations 2
GAMG:  Solving for p, Initial residual = 7.958584e-05, Final residual = 3.063026e-07, No Iterations 4
time step continuity errors : sum local = 6.94034e-08, global = -4.748266e-08, cumulative = 5.329391e-06
ExecutionTime = 1.17 s  ClockTime = 1 s

Time = 44

DILUPBiCGStab:  Solving for Ux, Initial residual = 0.002682469, Final residual = 3.956595e-05, No Iterations 1
DILUPBiCGStab:  Solving for Uy, Initial residual = 0.008715099, Final residual = 7.781855e-05, No Iterations 1
DILUPBiCGStab:  Solving for Uz, Initial residual = 0.005661234, Final residual = 6.31848e-05, No Iterations 1
GAMG:  Solving for p, Initial residual = 0.02330937, Final residual = 7.563453e-05, No Iterations 2
GAMG:  Solving for p, Initial residual = 7.690327e-05, Final residual = 2.957383e-07, No Iterations 4
time step continuity errors : sum local = 6.55445e-08, global = -4.467938e-08, cumulative = 5.284711e-06
ExecutionTime = 1.2 s  ClockTime = 1 s

Time = 45

DILUPBiCGStab:  Solving for Ux, Initial residual = 0.00215688, Final residual = 2.949891e-05, No Iterations 1
DILUPBiCGStab:  Solving for Uy, Initial residual = 0.007291086, Final residual = 5.735663e-05, No Iterations 1
DILUPBiCGStab:  Solving for Uz, Initial residual = 0.004441014, Final residual = 4.958577e-05, No Iterations 1
GAMG:  Solving for p, Initial residual = 0.02091095, Final residual = 7.059052e-05, No Iterations 2
GAMG:  Solving for p, Initial residual = 7.163347e-05, Final residual = 2.760341e-07, No Iterations 4
time step continuity errors : sum local = 5.964286e-08, global = -4.052377e-08, cumulative = 5.244187e-06
ExecutionTime = 1.22 s  ClockTime = 1 s

Time = 46

DILUPBiCGStab:  Solving for Ux, Initial residual = 0.001617873, Final residual = 2.277682e-05, No Iterations 1
DILUPBiCGStab:  Solving for Uy, Initial residual = 0.005997857, Final residual = 4.391964e-05, No Iterations 1
DILUPBiCGStab:  Solving for Uz, Initial residual = 0.003513414, Final residual = 3.63333e-05, No Iterations 1
GAMG:  Solving for p, Initial residual = 0.01834621, Final residual = 6.2073e-05, No Iterations 2
GAMG:  Solving for p, Initial residual = 6.285312e-05, Final residual = 9.39757e-07, No Iterations 3
time step continuity errors : sum local = 1.991676e-07, global = -1.358569e-07, cumulative = 5.10833e-06
ExecutionTime = 1.24 s  ClockTime = 2 s

Time = 47

DILUPBiCGStab:  Solving for Ux, Initial residual = 0.001225037, Final residual = 1.819716e-05, No Iterations 1
DILUPBiCGStab:  Solving for Uy, Initial residual = 0.004855508, Final residual = 3.512877e-05, No Iterations 1
DILUPBiCGStab:  Solving for Uz, Initial residual = 0.002822217, Final residual = 2.849621e-05, No Iterations 1
GAMG:  Solving for p, Initial residual = 0.01581404, Final residual = 5.209868e-05, No Iterations 2
GAMG:  Solving for p, Initial residual = 5.264028e-05, Final residual = 7.870446e-07, No Iterations 3
time step continuity errors : sum local = 1.64268e-07, global = -1.118875e-07, cumulative = 4.996443e-06
ExecutionTime = 1.27 s  ClockTime = 2 s

Time = 48

DILUPBiCGStab:  Solving for Ux, Initial residual = 0.0009609632, Final residual = 1.469431e-05, No Iterations 1
DILUPBiCGStab:  Solving for Uy, Initial residual = 0.003930755, Final residual = 2.846837e-05, No Iterations 1
DILUPBiCGStab:  Solving for Uz, Initial residual = 0.002289426, Final residual = 2.307594e-05, No Iterations 1
GAMG:  Solving for p, Initial residual = 0.01352273, Final residual = 4.280336e-05, No Iterations 2
GAMG:  Solving for p, Initial residual = 4.316256e-05, Final residual = 6.447067e-07, No Iterations 3
time step continuity errors : sum local = 1.329214e-07, global = -9.044492e-08, cumulative = 4.905998e-06
ExecutionTime = 1.29 s  ClockTime = 2 s

Time = 49

DILUPBiCGStab:  Solving for Ux, Initial residual = 0.0007692456, Final residual = 1.195927e-05, No Iterations 1
DILUPBiCGStab:  Solving for Uy, Initial residual = 0.003180771, Final residual = 2.310661e-05, No Iterations 1
DILUPBiCGStab:  Solving for Uz, Initial residual = 0.001860095, Final residual = 1.897701e-05, No Iterations 1
GAMG:  Solving for p, Initial residual = 0.01151033, Final residual = 3.480157e-05, No Iterations 2
GAMG:  Solving for p, Initial residual = 3.503651e-05, Final residual = 5.222772e-07, No Iterations 3
time step continuity errors : sum local = 1.066447e-07, global = -7.251177e-08, cumulative = 4.833486e-06
ExecutionTime = 1.31 s  ClockTime = 2 s

Time = 50

DILUPBiCGStab:  Solving for Ux, Initial residual = 0.0006201338, Final residual = 9.770572e-06, No Iterations 1
DILUPBiCGStab:  Solving for Uy, Initial residual = 0.002565753, Final residual = 1.869059e-05, No Iterations 1
DILUPBiCGStab:  Solving for Uz, Initial residual = 0.001508029, Final residual = 1.558851e-05, No Iterations 1
GAMG:  Solving for p, Initial residual = 0.009755713, Final residual = 2.814844e-05, No Iterations 2
GAMG:  Solving for p, Initial residual = 2.829911e-05, Final residual = 4.206456e-07, No Iterations 3
time step continuity errors : sum local = 8.524235e-08, global = -5.792299e-08, cumulative = 4.775563e-06
ExecutionTime = 1.34 s  ClockTime = 2 s

Time = 51

DILUPBiCGStab:  Solving for Ux, Initial residual = 0.0005013106, Final residual = 7.984974e-06, No Iterations 1
DILUPBiCGStab:  Solving for Uy, Initial residual = 0.002065208, Final residual = 1.506787e-05, No Iterations 1
DILUPBiCGStab:  Solving for Uz, Initial residual = 0.00122122, Final residual = 1.277088e-05, No Iterations 1
GAMG:  Solving for p, Initial residual = 0.008237245, Final residual = 2.26891e-05, No Iterations 2
GAMG:  Solving for p, Initial residual = 2.278555e-05, Final residual = 3.373741e-07, No Iterations 3
time step continuity errors : sum local = 6.795743e-08, global = -4.614999e-08, cumulative = 4.729413e-06
ExecutionTime = 1.36 s  ClockTime = 2 s

Time = 52

DILUPBiCGStab:  Solving for Ux, Initial residual = 0.0004061045, Final residual = 6.521829e-06, No Iterations 1
DILUPBiCGStab:  Solving for Uy, Initial residual = 0.001661979, Final residual = 1.2123e-05, No Iterations 1
DILUPBiCGStab:  Solving for Uz, Initial residual = 0.0009906377, Final residual = 1.042821e-05, No Iterations 1
GAMG:  Solving for p, Initial residual = 0.006933562, Final residual = 1.82432e-05, No Iterations 2
GAMG:  Solving for p, Initial residual = 1.830395e-05, Final residual = 2.696426e-07, No Iterations 3
time step continuity errors : sum local = 5.40605e-08, global = -3.669011e-08, cumulative = 4.692723e-06
ExecutionTime = 1.38 s  ClockTime = 2 s

Time = 53

DILUPBiCGStab:  Solving for Ux, Initial residual = 0.0003291889, Final residual = 5.320998e-06, No Iterations 1
DILUPBiCGStab:  Solving for Uy, Initial residual = 0.001338148, Final residual = 9.749856e-06, No Iterations 1
DILUPBiCGStab:  Solving for Uz, Initial residual = 0.0008039862, Final residual = 8.494406e-06, No Iterations 1
GAMG:  Solving for p, Initial residual = 0.005820123, Final residual = 1.463688e-05, No Iterations 2
GAMG:  Solving for p, Initial residual = 1.467469e-05, Final residual = 8.434612e-07, No Iterations 2
time step continuity errors : sum local = 1.684931e-07, global = -1.155784e-07, cumulative = 4.577145e-06
ExecutionTime = 1.4 s  ClockTime = 2 s

Time = 54

DILUPBiCGStab:  Solving for Ux, Initial residual = 0.0002666129, Final residual = 4.339508e-06, No Iterations 1
DILUPBiCGStab:  Solving for Uy, Initial residual = 0.001077384, Final residual = 7.85909e-06, No Iterations 1
DILUPBiCGStab:  Solving for Uz, Initial residual = 0.0006534417, Final residual = 6.927899e-06, No Iterations 1
GAMG:  Solving for p, Initial residual = 0.004873829, Final residual = 1.179643e-05, No Iterations 2
GAMG:  Solving for p, Initial residual = 1.18201e-05, Final residual = 6.757635e-07, No Iterations 2
time step continuity errors : sum local = 1.346123e-07, global = -9.225579e-08, cumulative = 4.484889e-06
ExecutionTime = 1.42 s  ClockTime = 2 s

Time = 55

DILUPBiCGStab:  Solving for Ux, Initial residual = 0.0002156721, Final residual = 3.533025e-06, No Iterations 1
DILUPBiCGStab:  Solving for Uy, Initial residual = 0.0008661414, Final residual = 6.321772e-06, No Iterations 1
DILUPBiCGStab:  Solving for Uz, Initial residual = 0.0005299126, Final residual = 5.624475e-06, No Iterations 1
GAMG:  Solving for p, Initial residual = 0.004074772, Final residual = 9.460744e-06, No Iterations 2
GAMG:  Solving for p, Initial residual = 9.475096e-06, Final residual = 5.372443e-07, No Iterations 2
time step continuity errors : sum local = 1.067933e-07, global = -7.311628e-08, cumulative = 4.411773e-06
ExecutionTime = 1.45 s  ClockTime = 2 s

Time = 56

DILUPBiCGStab:  Solving for Ux, Initial residual = 0.0001743225, Final residual = 2.873531e-06, No Iterations 1
DILUPBiCGStab:  Solving for Uy, Initial residual = 0.0006974268, Final residual = 5.08992e-06, No Iterations 1
DILUPBiCGStab:  Solving for Uz, Initial residual = 0.0004292123, Final residual = 4.558212e-06, No Iterations 1
GAMG:  Solving for p, Initial residual = 0.00340078, Final residual = 7.571736e-06, No Iterations 2
GAMG:  Solving for p, Initial residual = 7.58015e-06, Final residual = 4.25191e-07, No Iterations 2
time step continuity errors : sum local = 8.438806e-08, global = -5.770015e-08, cumulative = 4.354073e-06
ExecutionTime = 1.47 s  ClockTime = 2 s

Time = 57

DILUPBiCGStab:  Solving for Ux, Initial residual = 0.0001409239, Final residual = 2.335647e-06, No Iterations 1
DILUPBiCGStab:  Solving for Uy, Initial residual = 0.0005618022, Final residual = 4.104109e-06, No Iterations 1
DILUPBiCGStab:  Solving for Uz, Initial residual = 0.0003474013, Final residual = 3.693175e-06, No Iterations 1
GAMG:  Solving for p, Initial residual = 0.002833802, Final residual = 6.060535e-06, No Iterations 2
GAMG:  Solving for p, Initial residual = 6.065397e-06, Final residual = 3.359002e-07, No Iterations 2
time step continuity errors : sum local = 6.659237e-08, global = -4.545185e-08, cumulative = 4.308621e-06
ExecutionTime = 1.49 s  ClockTime = 2 s

Time = 58

DILUPBiCGStab:  Solving for Ux, Initial residual = 0.0001140512, Final residual = 1.897706e-06, No Iterations 1
DILUPBiCGStab:  Solving for Uy, Initial residual = 0.0004527992, Final residual = 3.312329e-06, No Iterations 1
DILUPBiCGStab:  Solving for Uz, Initial residual = 0.0002812699, Final residual = 2.991701e-06, No Iterations 1
GAMG:  Solving for p, Initial residual = 0.002358283, Final residual = 4.858926e-06, No Iterations 2
GAMG:  Solving for p, Initial residual = 4.861784e-06, Final residual = 2.653126e-07, No Iterations 2
time step continuity errors : sum local = 5.255487e-08, global = -3.578614e-08, cumulative = 4.272835e-06
ExecutionTime = 1.51 s  ClockTime = 2 s

Time = 59

DILUPBiCGStab:  Solving for Ux, Initial residual = 9.249363e-05, Final residual = 1.541926e-06, No Iterations 1
DILUPBiCGStab:  Solving for Uy, Initial residual = 0.000364745, Final residual = 2.675809e-06, No Iterations 1
DILUPBiCGStab:  Solving for Uz, Initial residual = 0.0002279358, Final residual = 2.424316e-06, No Iterations 1
GAMG:  Solving for p, Initial residual = 0.001961474, Final residual = 3.905788e-06, No Iterations 2
GAMG:  Solving for p, Initial residual = 3.907471e-06, Final residual = 8.607513e-07, No Iterations 1
time step continuity errors : sum local = 1.704014e-07, global = -1.146474e-07, cumulative = 4.158187e-06
ExecutionTime = 1.54 s  ClockTime = 2 s

Time = 60

DILUPBiCGStab:  Solving for Ux, Initial residual = 7.515929e-05, Final residual = 1.255898e-06, No Iterations 1
DILUPBiCGStab:  Solving for Uy, Initial residual = 0.0002941748, Final residual = 2.178486e-06, No Iterations 1
DILUPBiCGStab:  Solving for Uz, Initial residual = 0.00018545, Final residual = 1.982508e-06, No Iterations 1
GAMG:  Solving for p, Initial residual = 0.001631642, Final residual = 3.214837e-06, No Iterations 2
GAMG:  Solving for p, Initial residual = 3.21575e-06, Final residual = 7.013245e-07, No Iterations 1
time step continuity errors : sum local = 1.387858e-07, global = -9.31778e-08, cumulative = 4.065009e-06
ExecutionTime = 1.56 s  ClockTime = 2 s

Time = 61

DILUPBiCGStab:  Solving for Ux, Initial residual = 6.103985e-05, Final residual = 1.02029e-06, No Iterations 1
DILUPBiCGStab:  Solving for Uy, Initial residual = 0.0002368863, Final residual = 1.757372e-06, No Iterations 1
DILUPBiCGStab:  Solving for Uz, Initial residual = 0.0001504035, Final residual = 1.602905e-06, No Iterations 1
GAMG:  Solving for p, Initial residual = 0.001357225, Final residual = 2.614805e-06, No Iterations 2
GAMG:  Solving for p, Initial residual = 2.61529e-06, Final residual = 5.601846e-07, No Iterations 1
time step continuity errors : sum local = 1.108265e-07, global = -7.438463e-08, cumulative = 3.990625e-06
ExecutionTime = 1.58 s  ClockTime = 2 s

Time = 62

DILUPBiCGStab:  Solving for Ux, Initial residual = 4.964871e-05, Final residual = 8.288212e-07, No Iterations 1
DILUPBiCGStab:  Solving for Uy, Initial residual = 0.000191124, Final residual = 1.417637e-06, No Iterations 1
DILUPBiCGStab:  Solving for Uz, Initial residual = 0.00012184, Final residual = 1.292765e-06, No Iterations 1
GAMG:  Solving for p, Initial residual = 0.001127788, Final residual = 2.123871e-06, No Iterations 2
GAMG:  Solving for p, Initial residual = 2.124137e-06, Final residual = 4.441948e-07, No Iterations 1
time step continuity errors : sum local = 8.786337e-08, global = -5.89668e-08, cumulative = 3.931658e-06
ExecutionTime = 1.61 s  ClockTime = 2 s

Time = 63

DILUPBiCGStab:  Solving for Ux, Initial residual = 4.040021e-05, Final residual = 6.736081e-07, No Iterations 1
DILUPBiCGStab:  Solving for Uy, Initial residual = 0.0001546552, Final residual = 1.145963e-06, No Iterations 1
DILUPBiCGStab:  Solving for Uz, Initial residual = 9.880683e-05, Final residual = 1.04463e-06, No Iterations 1
GAMG:  Solving for p, Initial residual = 0.0009365232, Final residual = 1.735274e-06, No Iterations 2
GAMG:  Solving for p, Initial residual = 1.735444e-06, Final residual = 3.5382e-07, No Iterations 1
time step continuity errors : sum local = 6.997669e-08, global = -4.68171e-08, cumulative = 3.884841e-06
ExecutionTime = 1.63 s  ClockTime = 2 s

Time = 64

DILUPBiCGStab:  Solving for Ux, Initial residual = 3.289292e-05, Final residual = 5.478758e-07, No Iterations 1
DILUPBiCGStab:  Solving for Uy, Initial residual = 0.0001253335, Final residual = 9.298725e-07, No Iterations 1
DILUPBiCGStab:  Solving for Uz, Initial residual = 8.028751e-05, Final residual = 8.470246e-07, No Iterations 1
GAMG:  Solving for p, Initial residual = 0.000777026, Final residual = 1.432522e-06, No Iterations 2
GAMG:  Solving for p, Initial residual = 1.432637e-06, Final residual = 2.843211e-07, No Iterations 1
time step continuity errors : sum local = 5.622495e-08, global = -3.73117e-08, cumulative = 3.847529e-06
ExecutionTime = 1.65 s  ClockTime = 2 s

Time = 65

DILUPBiCGStab:  Solving for Ux, Initial residual = 2.683388e-05, Final residual = 4.460179e-07, No Iterations 1
DILUPBiCGStab:  Solving for Uy, Initial residual = 0.0001016543, Final residual = 7.562416e-07, No Iterations 1
DILUPBiCGStab:  Solving for Uz, Initial residual = 6.528201e-05, Final residual = 6.886679e-07, No Iterations 1
GAMG:  Solving for p, Initial residual = 0.0006445393, Final residual = 1.192511e-06, No Iterations 2
GAMG:  Solving for p, Initial residual = 1.19259e-06, Final residual = 2.316658e-07, No Iterations 1
time step continuity errors : sum local = 4.580771e-08, global = -2.975968e-08, cumulative = 3.817769e-06
ExecutionTime = 1.67 s  ClockTime = 2 s

Time = 66

DILUPBiCGStab:  Solving for Ux, Initial residual = 2.190864e-05, Final residual = 3.633497e-07, No Iterations 1
DILUPBiCGStab:  Solving for Uy, Initial residual = 8.249187e-05, Final residual = 6.156886e-07, No Iterations 1
DILUPBiCGStab:  Solving for Uz, Initial residual = 5.311167e-05, Final residual = 5.606344e-07, No Iterations 1
GAMG:  Solving for p, Initial residual = 0.0005345226, Final residual = 1.000126e-06, No Iterations 2
GAMG:  Solving for p, Initial residual = 1.000184e-06, Final residual = 1.917128e-07, No Iterations 1
time step continuity errors : sum local = 3.790448e-08, global = -2.361767e-08, cumulative = 3.794152e-06
ExecutionTime = 1.69 s  ClockTime = 2 s

Time = 67

DILUPBiCGStab:  Solving for Ux, Initial residual = 1.789859e-05, Final residual = 2.962754e-07, No Iterations 1
DILUPBiCGStab:  Solving for Uy, Initial residual = 6.701004e-05, Final residual = 5.016134e-07, No Iterations 1
DILUPBiCGStab:  Solving for Uz, Initial residual = 4.330788e-05, Final residual = 4.569166e-07, No Iterations 1
GAMG:  Solving for p, Initial residual = 0.0004432197, Final residual = 8.423632e-07, No Iterations 2
GAMG:  Solving for p, Initial residual = 8.424051e-07, Final residual = 8.424051e-07, No Iterations 0
time step continuity errors : sum local = 1.665438e-07, global = -8.391916e-08, cumulative = 3.710233e-06
ExecutionTime = 1.71 s  ClockTime = 2 s

Time = 68

DILUPBiCGStab:  Solving for Ux, Initial residual = 1.463705e-05, Final residual = 2.428101e-07, No Iterations 1
DILUPBiCGStab:  Solving for Uy, Initial residual = 5.502801e-05, Final residual = 4.207348e-07, No Iterations 1
DILUPBiCGStab:  Solving for Uz, Initial residual = 3.566197e-05, Final residual = 3.829384e-07, No Iterations 1
GAMG:  Solving for p, Initial residual = 0.0003675242, Final residual = 7.483391e-07, No Iterations 2
GAMG:  Solving for p, Initial residual = 7.483711e-07, Final residual = 7.483711e-07, No Iterations 0
time step continuity errors : sum local = 1.47944e-07, global = -7.200252e-08, cumulative = 3.63823e-06
ExecutionTime = 1.73 s  ClockTime = 2 s

Time = 69

DILUPBiCGStab:  Solving for Ux, Initial residual = 1.195947e-05, Final residual = 1.977652e-07, No Iterations 1
DILUPBiCGStab:  Solving for Uy, Initial residual = 4.481509e-05, Final residual = 3.407317e-07, No Iterations 1
DILUPBiCGStab:  Solving for Uz, Initial residual = 2.907845e-05, Final residual = 3.100161e-07, No Iterations 1
GAMG:  Solving for p, Initial residual = 0.0003045804, Final residual = 6.434083e-07, No Iterations 2
GAMG:  Solving for p, Initial residual = 6.434307e-07, Final residual = 6.434307e-07, No Iterations 0
time step continuity errors : sum local = 1.271921e-07, global = -5.616904e-08, cumulative = 3.582061e-06
ExecutionTime = 1.74 s  ClockTime = 2 s

Time = 70

DILUPBiCGStab:  Solving for Ux, Initial residual = 9.766734e-06, Final residual = 1.608312e-07, No Iterations 1
DILUPBiCGStab:  Solving for Uy, Initial residual = 3.63863e-05, Final residual = 2.733804e-07, No Iterations 1
DILUPBiCGStab:  Solving for Uz, Initial residual = 2.363458e-05, Final residual = 2.483716e-07, No Iterations 1
GAMG:  Solving for p, Initial residual = 0.0002523698, Final residual = 5.438117e-07, No Iterations 2
GAMG:  Solving for p, Initial residual = 5.438274e-07, Final residual = 5.438274e-07, No Iterations 0
time step continuity errors : sum local = 1.074982e-07, global = -4.004838e-08, cumulative = 3.542013e-06
ExecutionTime = 1.76 s  ClockTime = 2 s

Time = 71

DILUPBiCGStab:  Solving for Ux, Initial residual = 7.989423e-06, Final residual = 1.310588e-07, No Iterations 1
DILUPBiCGStab:  Solving for Uy, Initial residual = 2.957964e-05, Final residual = 2.20314e-07, No Iterations 1
DILUPBiCGStab:  Solving for Uz, Initial residual = 1.924668e-05, Final residual = 1.999434e-07, No Iterations 1
GAMG:  Solving for p, Initial residual = 0.0002090498, Final residual = 4.564558e-07, No Iterations 2
GAMG:  Solving for p, Initial residual = 4.56467e-07, Final residual = 4.56467e-07, No Iterations 0
time step continuity errors : sum local = 9.022648e-08, global = -2.663898e-08, cumulative = 3.515374e-06
ExecutionTime = 1.78 s  ClockTime = 2 s

Time = 72

DILUPBiCGStab:  Solving for Ux, Initial residual = 6.553839e-06, Final residual = 1.071999e-07, No Iterations 1
DILUPBiCGStab:  Solving for Uy, Initial residual = 2.409171e-05, Final residual = 1.78846e-07, No Iterations 1
DILUPBiCGStab:  Solving for Uz, Initial residual = 1.57224e-05, Final residual = 1.624379e-07, No Iterations 1
GAMG:  Solving for p, Initial residual = 0.0001730827, Final residual = 3.823928e-07, No Iterations 2
GAMG:  Solving for p, Initial residual = 3.824003e-07, Final residual = 3.824003e-07, No Iterations 0
time step continuity errors : sum local = 7.558413e-08, global = -1.699176e-08, cumulative = 3.498382e-06
ExecutionTime = 1.8 s  ClockTime = 2 s

Time = 73

DILUPBiCGStab:  Solving for Ux, Initial residual = 5.383296e-06, Final residual = 8.790487e-08, No Iterations 1
DILUPBiCGStab:  Solving for Uy, Initial residual = 1.967163e-05, Final residual = 1.460853e-07, No Iterations 1
DILUPBiCGStab:  Solving for Uz, Initial residual = 1.289452e-05, Final residual = 1.330173e-07, No Iterations 1
GAMG:  Solving for p, Initial residual = 0.0001432854, Final residual = 3.20106e-07, No Iterations 2
GAMG:  Solving for p, Initial residual = 3.201109e-07, Final residual = 3.201109e-07, No Iterations 0
time step continuity errors : sum local = 6.327076e-08, global = -1.070398e-08, cumulative = 3.487678e-06
ExecutionTime = 1.83 s  ClockTime = 2 s

Time = 74

DILUPBiCGStab:  Solving for Ux, Initial residual = 4.427026e-06, Final residual = 7.215699e-08, No Iterations 1
DILUPBiCGStab:  Solving for Uy, Initial residual = 1.609239e-05, Final residual = 1.198454e-07, No Iterations 1
DILUPBiCGStab:  Solving for Uz, Initial residual = 1.06142e-05, Final residual = 1.094744e-07, No Iterations 1
GAMG:  Solving for p, Initial residual = 0.0001185568, Final residual = 2.678022e-07, No Iterations 2
GAMG:  Solving for p, Initial residual = 2.678058e-07, Final residual = 2.678058e-07, No Iterations 0
time step continuity errors : sum local = 5.293149e-08, global = -6.800985e-09, cumulative = 3.480877e-06
ExecutionTime = 1.84 s  ClockTime = 2 s

Time = 75

DILUPBiCGStab:  Solving for Ux, Initial residual = 3.640959e-06, Final residual = 5.923744e-08, No Iterations 1
DILUPBiCGStab:  Solving for Uy, Initial residual = 1.318368e-05, Final residual = 9.850413e-08, No Iterations 1
DILUPBiCGStab:  Solving for Uz, Initial residual = 8.74467e-06, Final residual = 9.029112e-08, No Iterations 1
GAMG:  Solving for p, Initial residual = 9.809817e-05, Final residual = 2.239312e-07, No Iterations 2
GAMG:  Solving for p, Initial residual = 2.239337e-07, Final residual = 2.239337e-07, No Iterations 0
time step continuity errors : sum local = 4.425949e-08, global = -4.364692e-09, cumulative = 3.476512e-06
ExecutionTime = 1.87 s  ClockTime = 2 s


SIMPLE solution converged in 75 iterations

End

