/*---------------------------------------------------------------------------*\
| =========                 |                                                 |
| \\      /  F ield         | OpenFOAM: The Open Source CFD Toolbox           |
|  \\    /   O peration     | Version:  2106                                  |
|   \\  /    A nd           | Website:  www.openfoam.com                      |
|    \\/     M anipulation  |                                                 |
\*---------------------------------------------------------------------------*/
Build  : _f815a12b-20210902 OPENFOAM=2106
Arch   : "LSB;label=32;scalar=64"
Exec   : changeDictionary
Date   : Jan 25 2022
Time   : 17:17:26
Host   : ServaasComputer
PID    : 18656
I/O    : uncollated
Case   : /home/servaas/OpenFOAM/servaas-v2106/VolumeAreaVerification
nProcs : 1
trapFpe: Floating point exception trapping enabled (FOAM_SIGFPE).
fileModificationChecking : Monitoring run-time modified files using timeStampMaster (fileModificationSkew 5, maxFileModificationPolls 20)
allowSystemOperations : Allowing user-supplied system call operations

// * * * * * * * * * * * * * * * * * * * * * * * * * * * * * * * * * * * * * //
Create time

Overriding OptimisationSwitches according to controlDict
    fileHandler (unregistered)
    fileModificationSkew 0;

    maxMasterFileBufferSize 1e+09;

    maxThreadFileBufferSize 1e+09;

    mpiBufferSize (unregistered)
Create mesh for time = 0

Read dictionary changeDictionaryDict with replacements for dictionaries 2(p U)
Reading polyMesh/boundary file to extract patch names
Loaded dictionary boundary with entries 3(inlet outlet boundaries)
Replacing entries in dictionary p
Loading dictionary p
Loaded dictionary p with entries 3(dimensions internalField boundaryField)
Merging entries from 1(boundaryField)
Writing modified fieldDict p
Replacing entries in dictionary U
Loading dictionary U
Loaded dictionary U with entries 3(dimensions internalField boundaryField)
Merging entries from 1(boundaryField)
Writing modified fieldDict U

End

