/*---------------------------------------------------------------------------*\
| =========                 |                                                 |
| \\      /  F ield         | OpenFOAM: The Open Source CFD Toolbox           |
|  \\    /   O peration     | Version:  2106                                  |
|   \\  /    A nd           | Website:  www.openfoam.com                      |
|    \\/     M anipulation  |                                                 |
\*---------------------------------------------------------------------------*/
Build  : _f815a12b-20210902 OPENFOAM=2106
Arch   : "LSB;label=32;scalar=64"
Exec   : geometricCalc
Date   : Jan 25 2022
Time   : 17:17:29
Host   : ServaasComputer
PID    : 18669
I/O    : uncollated
Case   : /home/servaas/OpenFOAM/servaas-v2106/VolumeAreaVerification
nProcs : 1
trapFpe: Floating point exception trapping enabled (FOAM_SIGFPE).
fileModificationChecking : Monitoring run-time modified files using timeStampMaster (fileModificationSkew 5, maxFileModificationPolls 20)
allowSystemOperations : Allowing user-supplied system call operations

// * * * * * * * * * * * * * * * * * * * * * * * * * * * * * * * * * * * * * //
Create time

Overriding OptimisationSwitches according to controlDict
    fileHandler (unregistered)
    fileModificationSkew 0;

    maxMasterFileBufferSize 1e+09;

    maxThreadFileBufferSize 1e+09;

    mpiBufferSize (unregistered)
Create mesh for time = 0

Calculating zone volumes and areas:
zoneName = zone0: cellZoneVol = 0.04172719\ nFaces = 720\ area = 1.83618\ projected area = 0.826281\ proj Dir = (-1 0 0)\
zoneName = zone1: cellZoneVol = 0.06027261\ nFaces = 1024\ area = 2.611456\ projected area = 0.8764033\ proj Dir = (-0.7071068 0 -0.7071068)\
zoneName = zone2: cellZoneVol = 0.06593926\ nFaces = 938\ area = 2.392135\ projected area = 0.826281\ proj Dir = (0 0 -1)\

End
