/*---------------------------------------------------------------------------*\
| =========                 |                                                 |
| \\      /  F ield         | OpenFOAM: The Open Source CFD Toolbox           |
|  \\    /   O peration     | Version:  2106                                  |
|   \\  /    A nd           | Website:  www.openfoam.com                      |
|    \\/     M anipulation  |                                                 |
\*---------------------------------------------------------------------------*/
Build  : _f815a12b-20210902 OPENFOAM=2106
Arch   : "LSB;label=32;scalar=64"
Exec   : simpleFoam
Date   : Jan 25 2022
Time   : 17:17:29
Host   : ServaasComputer
PID    : 18672
I/O    : uncollated
Case   : /home/servaas/OpenFOAM/servaas-v2106/VolumeAreaVerification
nProcs : 1
trapFpe: Floating point exception trapping enabled (FOAM_SIGFPE).
fileModificationChecking : Monitoring run-time modified files using timeStampMaster (fileModificationSkew 5, maxFileModificationPolls 20)
allowSystemOperations : Allowing user-supplied system call operations

// * * * * * * * * * * * * * * * * * * * * * * * * * * * * * * * * * * * * * //
Create time

Overriding OptimisationSwitches according to controlDict
    fileHandler (unregistered)
    fileModificationSkew 0;

    maxMasterFileBufferSize 1e+09;

    maxThreadFileBufferSize 1e+09;

    mpiBufferSize (unregistered)
Create mesh for time = 0


SIMPLE: convergence criteria
    field p	 tolerance 0.0001
    field U	 tolerance 0.0001

Reading field p

Reading field U

Reading/calculating face flux field phi

Selecting incompressible transport model Newtonian
Selecting turbulence model type laminar
Selecting laminar stress model Stokes
Creating MRF zone list from MRFProperties
Creating finite volume options from "system/fvOptions"

Selecting finite volume options type explicitPorositySource
    Source: porosityInzone0
    - selecting cells using cellZone zone0
    - selected 324 cell(s) with volume 0.04172719
Porosity region porosityInzone0:
    selecting model: DarcyForchheimer
    creating porous zone: zone0
    origin: (0 0 0) e1: (-1 0 0) e2: (0 1 0)
    local bounds: (0.0505 0.909 0.909)

Selecting finite volume options type explicitPorositySource
    Source: porosityInzone1
    - selecting cells using cellZone zone1
    - selected 468 cell(s) with volume 0.06027261
Porosity region porosityInzone1:
    selecting model: DarcyForchheimer
    creating porous zone: zone1
    origin: (0 0 0) e1: (-1 0 -1) e2: (0 1 0)
    local bounds: (0.1071267 0.909 0.9641401)

Selecting finite volume options type explicitPorositySource
    Source: porosityInzone2
    - selecting cells using cellZone zone2
    - selected 512 cell(s) with volume 0.06593926
Porosity region porosityInzone2:
    selecting model: DarcyForchheimer
    creating porous zone: zone2
    origin: (0 0 0) e1: (0 0 -1) e2: (0 1 0)
    local bounds: (0.101 0.909 0.909)


Starting time loop

Time = 1

DILUPBiCGStab:  Solving for Ux, Initial residual = 1, Final residual = 0.0007973268, No Iterations 1
DILUPBiCGStab:  Solving for Uy, Initial residual = 0.9999957, Final residual = 0.0004992387, No Iterations 1
DILUPBiCGStab:  Solving for Uz, Initial residual = 0.9999862, Final residual = 0.001397135, No Iterations 1
GAMG:  Solving for p, Initial residual = 1, Final residual = 0.00812445, No Iterations 4
GAMG:  Solving for p, Initial residual = 0.000790765, Final residual = 2.605169e-06, No Iterations 5
time step continuity errors : sum local = 4.257712e-06, global = -1.932616e-06, cumulative = -1.932616e-06
ExecutionTime = 0.36 s  ClockTime = 0 s

Time = 2

DILUPBiCGStab:  Solving for Ux, Initial residual = 0.2337959, Final residual = 0.02145546, No Iterations 1
DILUPBiCGStab:  Solving for Uy, Initial residual = 0.2441965, Final residual = 0.004863086, No Iterations 1
DILUPBiCGStab:  Solving for Uz, Initial residual = 0.2441967, Final residual = 0.004863083, No Iterations 1
GAMG:  Solving for p, Initial residual = 0.9114491, Final residual = 0.003129892, No Iterations 5
GAMG:  Solving for p, Initial residual = 0.0002516531, Final residual = 1.169676e-06, No Iterations 5
time step continuity errors : sum local = 1.621656e-06, global = -3.509414e-07, cumulative = -2.283557e-06
ExecutionTime = 0.6 s  ClockTime = 0 s

Time = 3

DILUPBiCGStab:  Solving for Ux, Initial residual = 0.1671018, Final residual = 0.004027342, No Iterations 1
DILUPBiCGStab:  Solving for Uy, Initial residual = 0.1406401, Final residual = 0.002805927, No Iterations 1
DILUPBiCGStab:  Solving for Uz, Initial residual = 0.1406423, Final residual = 0.002805938, No Iterations 1
GAMG:  Solving for p, Initial residual = 0.0492372, Final residual = 0.0003758598, No Iterations 3
GAMG:  Solving for p, Initial residual = 0.0005355975, Final residual = 3.911978e-06, No Iterations 4
time step continuity errors : sum local = 3.258528e-06, global = 5.418703e-07, cumulative = -1.741687e-06
ExecutionTime = 0.82 s  ClockTime = 1 s

Time = 4

DILUPBiCGStab:  Solving for Ux, Initial residual = 0.1175637, Final residual = 0.002633062, No Iterations 1
DILUPBiCGStab:  Solving for Uy, Initial residual = 0.1003268, Final residual = 0.002077351, No Iterations 1
DILUPBiCGStab:  Solving for Uz, Initial residual = 0.1003281, Final residual = 0.002077391, No Iterations 1
GAMG:  Solving for p, Initial residual = 0.05406618, Final residual = 0.0004474149, No Iterations 3
GAMG:  Solving for p, Initial residual = 0.0008695988, Final residual = 2.794624e-06, No Iterations 5
time step continuity errors : sum local = 1.48512e-06, global = 3.942258e-07, cumulative = -1.347461e-06
ExecutionTime = 1.05 s  ClockTime = 1 s

Time = 5

DILUPBiCGStab:  Solving for Ux, Initial residual = 0.0883629, Final residual = 0.001834158, No Iterations 1
DILUPBiCGStab:  Solving for Uy, Initial residual = 0.1064376, Final residual = 0.002083528, No Iterations 1
DILUPBiCGStab:  Solving for Uz, Initial residual = 0.1064403, Final residual = 0.002083648, No Iterations 1
GAMG:  Solving for p, Initial residual = 0.07582728, Final residual = 0.0004452347, No Iterations 3
GAMG:  Solving for p, Initial residual = 0.0006201075, Final residual = 5.179853e-06, No Iterations 4
time step continuity errors : sum local = 2.445206e-06, global = 1.087544e-06, cumulative = -2.599171e-07
ExecutionTime = 1.27 s  ClockTime = 1 s

Time = 6

DILUPBiCGStab:  Solving for Ux, Initial residual = 0.07070936, Final residual = 0.00142223, No Iterations 1
DILUPBiCGStab:  Solving for Uy, Initial residual = 0.1106513, Final residual = 0.002007939, No Iterations 1
DILUPBiCGStab:  Solving for Uz, Initial residual = 0.1106594, Final residual = 0.002008275, No Iterations 1
GAMG:  Solving for p, Initial residual = 0.09866769, Final residual = 0.0004723908, No Iterations 3
GAMG:  Solving for p, Initial residual = 0.0004638506, Final residual = 3.131198e-06, No Iterations 4
time step continuity errors : sum local = 1.661072e-06, global = 4.766056e-07, cumulative = 2.166885e-07
ExecutionTime = 1.49 s  ClockTime = 1 s

Time = 7

DILUPBiCGStab:  Solving for Ux, Initial residual = 0.06225998, Final residual = 0.001230275, No Iterations 1
DILUPBiCGStab:  Solving for Uy, Initial residual = 0.1007065, Final residual = 0.00170785, No Iterations 1
DILUPBiCGStab:  Solving for Uz, Initial residual = 0.1007283, Final residual = 0.001708675, No Iterations 1
GAMG:  Solving for p, Initial residual = 0.101943, Final residual = 0.0004902212, No Iterations 3
GAMG:  Solving for p, Initial residual = 0.0004467657, Final residual = 3.272772e-06, No Iterations 4
time step continuity errors : sum local = 1.915491e-06, global = 2.517069e-07, cumulative = 4.683955e-07
ExecutionTime = 1.69 s  ClockTime = 1 s

Time = 8

DILUPBiCGStab:  Solving for Ux, Initial residual = 0.05643787, Final residual = 0.001076761, No Iterations 1
DILUPBiCGStab:  Solving for Uy, Initial residual = 0.08854223, Final residual = 0.001387514, No Iterations 1
DILUPBiCGStab:  Solving for Uz, Initial residual = 0.08859047, Final residual = 0.001389172, No Iterations 1
GAMG:  Solving for p, Initial residual = 0.09710583, Final residual = 0.0004677006, No Iterations 3
GAMG:  Solving for p, Initial residual = 0.0004411072, Final residual = 3.231489e-06, No Iterations 4
time step continuity errors : sum local = 1.98085e-06, global = 4.851604e-07, cumulative = 9.535559e-07
ExecutionTime = 1.91 s  ClockTime = 2 s

Time = 9

DILUPBiCGStab:  Solving for Ux, Initial residual = 0.05304552, Final residual = 0.0009451718, No Iterations 1
DILUPBiCGStab:  Solving for Uy, Initial residual = 0.08085829, Final residual = 0.001185192, No Iterations 1
DILUPBiCGStab:  Solving for Uz, Initial residual = 0.08095215, Final residual = 0.001188123, No Iterations 1
GAMG:  Solving for p, Initial residual = 0.09277729, Final residual = 0.0004588918, No Iterations 3
GAMG:  Solving for p, Initial residual = 0.0004497258, Final residual = 3.430465e-06, No Iterations 4
time step continuity errors : sum local = 2.117492e-06, global = 6.701588e-07, cumulative = 1.623715e-06
ExecutionTime = 2.14 s  ClockTime = 2 s

Time = 10

DILUPBiCGStab:  Solving for Ux, Initial residual = 0.04923042, Final residual = 0.0008292097, No Iterations 1
DILUPBiCGStab:  Solving for Uy, Initial residual = 0.0761798, Final residual = 0.001054644, No Iterations 1
DILUPBiCGStab:  Solving for Uz, Initial residual = 0.07634421, Final residual = 0.00105942, No Iterations 1
GAMG:  Solving for p, Initial residual = 0.09274448, Final residual = 0.0004398056, No Iterations 3
GAMG:  Solving for p, Initial residual = 0.0004354793, Final residual = 3.478853e-06, No Iterations 4
time step continuity errors : sum local = 2.15049e-06, global = 7.393815e-07, cumulative = 2.363096e-06
ExecutionTime = 2.38 s  ClockTime = 2 s

Time = 11

DILUPBiCGStab:  Solving for Ux, Initial residual = 0.04595349, Final residual = 0.0007394381, No Iterations 1
DILUPBiCGStab:  Solving for Uy, Initial residual = 0.07325181, Final residual = 0.007308617, No Iterations 1
DILUPBiCGStab:  Solving for Uz, Initial residual = 0.07352674, Final residual = 0.007344774, No Iterations 1
GAMG:  Solving for p, Initial residual = 0.09502768, Final residual = 0.0004720721, No Iterations 3
GAMG:  Solving for p, Initial residual = 0.0004658911, Final residual = 3.843372e-06, No Iterations 4
time step continuity errors : sum local = 2.384455e-06, global = 7.665178e-07, cumulative = 3.129614e-06
ExecutionTime = 2.58 s  ClockTime = 2 s

Time = 12

DILUPBiCGStab:  Solving for Ux, Initial residual = 0.04331177, Final residual = 0.0006713821, No Iterations 1
DILUPBiCGStab:  Solving for Uy, Initial residual = 0.07106533, Final residual = 0.006967785, No Iterations 1
DILUPBiCGStab:  Solving for Uz, Initial residual = 0.0714654, Final residual = 0.007019779, No Iterations 1
GAMG:  Solving for p, Initial residual = 0.09577948, Final residual = 0.0004332486, No Iterations 3
GAMG:  Solving for p, Initial residual = 0.0004240807, Final residual = 3.5422e-06, No Iterations 4
time step continuity errors : sum local = 2.218263e-06, global = 6.822452e-07, cumulative = 3.811859e-06
ExecutionTime = 2.79 s  ClockTime = 3 s

Time = 13

DILUPBiCGStab:  Solving for Ux, Initial residual = 0.04098664, Final residual = 0.0006176345, No Iterations 1
DILUPBiCGStab:  Solving for Uy, Initial residual = 0.0685154, Final residual = 0.006585338, No Iterations 1
DILUPBiCGStab:  Solving for Uz, Initial residual = 0.06907982, Final residual = 0.006656888, No Iterations 1
GAMG:  Solving for p, Initial residual = 0.09652413, Final residual = 0.0003929522, No Iterations 3
GAMG:  Solving for p, Initial residual = 0.0003830072, Final residual = 3.145254e-06, No Iterations 4
time step continuity errors : sum local = 1.982137e-06, global = 6.12121e-07, cumulative = 4.42398e-06
ExecutionTime = 3.01 s  ClockTime = 3 s

Time = 14

DILUPBiCGStab:  Solving for Ux, Initial residual = 0.03917752, Final residual = 0.0005725843, No Iterations 1
DILUPBiCGStab:  Solving for Uy, Initial residual = 0.06581894, Final residual = 0.006212615, No Iterations 1
DILUPBiCGStab:  Solving for Uz, Initial residual = 0.06661986, Final residual = 0.006307386, No Iterations 1
GAMG:  Solving for p, Initial residual = 0.09696831, Final residual = 0.0003581069, No Iterations 3
GAMG:  Solving for p, Initial residual = 0.0003489245, Final residual = 2.729587e-06, No Iterations 4
time step continuity errors : sum local = 1.72455e-06, global = 5.851384e-07, cumulative = 5.009118e-06
ExecutionTime = 3.23 s  ClockTime = 3 s

Time = 15

DILUPBiCGStab:  Solving for Ux, Initial residual = 0.03760367, Final residual = 0.0005340903, No Iterations 1
DILUPBiCGStab:  Solving for Uy, Initial residual = 0.0631704, Final residual = 0.005869453, No Iterations 1
DILUPBiCGStab:  Solving for Uz, Initial residual = 0.06423195, Final residual = 0.005985297, No Iterations 1
GAMG:  Solving for p, Initial residual = 0.09741532, Final residual = 0.0003215482, No Iterations 3
GAMG:  Solving for p, Initial residual = 0.0003135406, Final residual = 2.171844e-06, No Iterations 4
time step continuity errors : sum local = 1.371237e-06, global = 5.711561e-07, cumulative = 5.580275e-06
ExecutionTime = 3.45 s  ClockTime = 3 s

Time = 16

DILUPBiCGStab:  Solving for Ux, Initial residual = 0.03620695, Final residual = 0.0005014238, No Iterations 1
DILUPBiCGStab:  Solving for Uy, Initial residual = 0.06080152, Final residual = 0.005560446, No Iterations 1
DILUPBiCGStab:  Solving for Uz, Initial residual = 0.06204423, Final residual = 0.005688625, No Iterations 1
GAMG:  Solving for p, Initial residual = 0.09751341, Final residual = 0.0002872636, No Iterations 3
GAMG:  Solving for p, Initial residual = 0.0002803047, Final residual = 1.57876e-06, No Iterations 4
time step continuity errors : sum local = 9.960921e-07, global = 5.135966e-07, cumulative = 6.093871e-06
ExecutionTime = 3.66 s  ClockTime = 3 s

Time = 17

DILUPBiCGStab:  Solving for Ux, Initial residual = 0.0349644, Final residual = 0.000472228, No Iterations 1
DILUPBiCGStab:  Solving for Uy, Initial residual = 0.05867208, Final residual = 0.005280529, No Iterations 1
DILUPBiCGStab:  Solving for Uz, Initial residual = 0.06002328, Final residual = 0.005418015, No Iterations 1
GAMG:  Solving for p, Initial residual = 0.09727278, Final residual = 0.0002623412, No Iterations 3
GAMG:  Solving for p, Initial residual = 0.0002560126, Final residual = 1.270234e-06, No Iterations 4
time step continuity errors : sum local = 8.007101e-07, global = 4.121899e-07, cumulative = 6.506061e-06
ExecutionTime = 3.87 s  ClockTime = 4 s

Time = 18

DILUPBiCGStab:  Solving for Ux, Initial residual = 0.033761, Final residual = 0.0004459329, No Iterations 1
DILUPBiCGStab:  Solving for Uy, Initial residual = 0.056673, Final residual = 0.005020447, No Iterations 1
DILUPBiCGStab:  Solving for Uz, Initial residual = 0.05814846, Final residual = 0.005176236, No Iterations 1
GAMG:  Solving for p, Initial residual = 0.09656168, Final residual = 0.0002584452, No Iterations 3
GAMG:  Solving for p, Initial residual = 0.0002523754, Final residual = 1.527802e-06, No Iterations 4
time step continuity errors : sum local = 9.628413e-07, global = 3.455484e-07, cumulative = 6.851609e-06
ExecutionTime = 4.08 s  ClockTime = 4 s

Time = 19

DILUPBiCGStab:  Solving for Ux, Initial residual = 0.03272646, Final residual = 0.0004221338, No Iterations 1
DILUPBiCGStab:  Solving for Uy, Initial residual = 0.05466868, Final residual = 0.004778363, No Iterations 1
DILUPBiCGStab:  Solving for Uz, Initial residual = 0.05635208, Final residual = 0.004958104, No Iterations 1
GAMG:  Solving for p, Initial residual = 0.09538675, Final residual = 0.0002598524, No Iterations 3
GAMG:  Solving for p, Initial residual = 0.0002539323, Final residual = 1.56876e-06, No Iterations 4
time step continuity errors : sum local = 9.896856e-07, global = 3.148335e-07, cumulative = 7.166443e-06
ExecutionTime = 4.29 s  ClockTime = 4 s

Time = 20

DILUPBiCGStab:  Solving for Ux, Initial residual = 0.03179445, Final residual = 0.0004002607, No Iterations 1
DILUPBiCGStab:  Solving for Uy, Initial residual = 0.05269517, Final residual = 0.004558146, No Iterations 1
DILUPBiCGStab:  Solving for Uz, Initial residual = 0.05465384, Final residual = 0.004760495, No Iterations 1
GAMG:  Solving for p, Initial residual = 0.09387573, Final residual = 0.0002494168, No Iterations 3
GAMG:  Solving for p, Initial residual = 0.0002438834, Final residual = 1.456073e-06, No Iterations 4
time step continuity errors : sum local = 9.207439e-07, global = 3.151761e-07, cumulative = 7.481619e-06
ExecutionTime = 4.51 s  ClockTime = 4 s

Time = 21

DILUPBiCGStab:  Solving for Ux, Initial residual = 0.03099607, Final residual = 0.0003803018, No Iterations 1
DILUPBiCGStab:  Solving for Uy, Initial residual = 0.05089507, Final residual = 0.004361805, No Iterations 1
DILUPBiCGStab:  Solving for Uz, Initial residual = 0.05309013, Final residual = 0.00457383, No Iterations 1
GAMG:  Solving for p, Initial residual = 0.0913843, Final residual = 0.000233565, No Iterations 3
GAMG:  Solving for p, Initial residual = 0.0002286906, Final residual = 1.316076e-06, No Iterations 4
time step continuity errors : sum local = 8.373775e-07, global = 3.185978e-07, cumulative = 7.800217e-06
ExecutionTime = 4.74 s  ClockTime = 4 s

Time = 22

DILUPBiCGStab:  Solving for Ux, Initial residual = 0.03026224, Final residual = 0.000360903, No Iterations 1
DILUPBiCGStab:  Solving for Uy, Initial residual = 0.04924106, Final residual = 0.004185902, No Iterations 1
DILUPBiCGStab:  Solving for Uz, Initial residual = 0.05157691, Final residual = 0.004393656, No Iterations 1
GAMG:  Solving for p, Initial residual = 0.08900579, Final residual = 0.0002152994, No Iterations 3
GAMG:  Solving for p, Initial residual = 0.0002110046, Final residual = 1.175273e-06, No Iterations 4
time step continuity errors : sum local = 7.504348e-07, global = 3.256632e-07, cumulative = 8.12588e-06
ExecutionTime = 4.96 s  ClockTime = 5 s

Time = 23

DILUPBiCGStab:  Solving for Ux, Initial residual = 0.02975041, Final residual = 0.0003438409, No Iterations 1
DILUPBiCGStab:  Solving for Uy, Initial residual = 0.04781674, Final residual = 0.004031202, No Iterations 1
DILUPBiCGStab:  Solving for Uz, Initial residual = 0.0500864, Final residual = 0.004221375, No Iterations 1
GAMG:  Solving for p, Initial residual = 0.08646732, Final residual = 0.000849551, No Iterations 2
GAMG:  Solving for p, Initial residual = 0.000834649, Final residual = 3.707241e-06, No Iterations 4
time step continuity errors : sum local = 2.387807e-06, global = 1.08219e-06, cumulative = 9.20807e-06
ExecutionTime = 5.16 s  ClockTime = 5 s

Time = 24

DILUPBiCGStab:  Solving for Ux, Initial residual = 0.02940339, Final residual = 0.002890432, No Iterations 1
DILUPBiCGStab:  Solving for Uy, Initial residual = 0.046481, Final residual = 0.003890517, No Iterations 1
DILUPBiCGStab:  Solving for Uz, Initial residual = 0.04855053, Final residual = 0.004063524, No Iterations 1
GAMG:  Solving for p, Initial residual = 0.08588053, Final residual = 0.0007802802, No Iterations 2
GAMG:  Solving for p, Initial residual = 0.0007677541, Final residual = 3.482158e-06, No Iterations 4
time step continuity errors : sum local = 2.248347e-06, global = 1.133178e-06, cumulative = 1.034125e-05
ExecutionTime = 5.35 s  ClockTime = 5 s

Time = 25

DILUPBiCGStab:  Solving for Ux, Initial residual = 0.02927478, Final residual = 0.00282971, No Iterations 1
DILUPBiCGStab:  Solving for Uy, Initial residual = 0.04574103, Final residual = 0.003770559, No Iterations 1
DILUPBiCGStab:  Solving for Uz, Initial residual = 0.04740715, Final residual = 0.003925475, No Iterations 1
GAMG:  Solving for p, Initial residual = 0.08471015, Final residual = 0.0007296154, No Iterations 2
GAMG:  Solving for p, Initial residual = 0.0007216991, Final residual = 3.065066e-06, No Iterations 4
time step continuity errors : sum local = 1.986933e-06, global = 1.089783e-06, cumulative = 1.143103e-05
ExecutionTime = 5.55 s  ClockTime = 5 s

Time = 26

DILUPBiCGStab:  Solving for Ux, Initial residual = 0.02932614, Final residual = 0.002776566, No Iterations 1
DILUPBiCGStab:  Solving for Uy, Initial residual = 0.04486323, Final residual = 0.003652031, No Iterations 1
DILUPBiCGStab:  Solving for Uz, Initial residual = 0.04603882, Final residual = 0.003797141, No Iterations 1
GAMG:  Solving for p, Initial residual = 0.08532623, Final residual = 0.0007193938, No Iterations 2
GAMG:  Solving for p, Initial residual = 0.0007132718, Final residual = 3.202073e-06, No Iterations 4
time step continuity errors : sum local = 2.06934e-06, global = 1.094883e-06, cumulative = 1.252591e-05
ExecutionTime = 5.76 s  ClockTime = 5 s

Time = 27

DILUPBiCGStab:  Solving for Ux, Initial residual = 0.02944805, Final residual = 0.002730006, No Iterations 1
DILUPBiCGStab:  Solving for Uy, Initial residual = 0.04393668, Final residual = 0.003536934, No Iterations 1
DILUPBiCGStab:  Solving for Uz, Initial residual = 0.04462023, Final residual = 0.003673241, No Iterations 1
GAMG:  Solving for p, Initial residual = 0.08774436, Final residual = 0.0007401179, No Iterations 2
GAMG:  Solving for p, Initial residual = 0.00073693, Final residual = 3.563476e-06, No Iterations 4
time step continuity errors : sum local = 2.288578e-06, global = 1.192246e-06, cumulative = 1.371816e-05
ExecutionTime = 5.96 s  ClockTime = 6 s

Time = 28

DILUPBiCGStab:  Solving for Ux, Initial residual = 0.029703, Final residual = 0.002694936, No Iterations 1
DILUPBiCGStab:  Solving for Uy, Initial residual = 0.04307806, Final residual = 0.003426288, No Iterations 1
DILUPBiCGStab:  Solving for Uz, Initial residual = 0.04324321, Final residual = 0.003545549, No Iterations 1
GAMG:  Solving for p, Initial residual = 0.09088833, Final residual = 0.000772026, No Iterations 2
GAMG:  Solving for p, Initial residual = 0.0007702649, Final residual = 3.884292e-06, No Iterations 4
time step continuity errors : sum local = 2.455863e-06, global = 1.307016e-06, cumulative = 1.502518e-05
ExecutionTime = 6.16 s  ClockTime = 6 s

Time = 29

DILUPBiCGStab:  Solving for Ux, Initial residual = 0.03005426, Final residual = 0.002670577, No Iterations 1
DILUPBiCGStab:  Solving for Uy, Initial residual = 0.04236392, Final residual = 0.003316894, No Iterations 1
DILUPBiCGStab:  Solving for Uz, Initial residual = 0.0420249, Final residual = 0.003410184, No Iterations 1
GAMG:  Solving for p, Initial residual = 0.09726022, Final residual = 0.000804619, No Iterations 2
GAMG:  Solving for p, Initial residual = 0.0008029083, Final residual = 4.142394e-06, No Iterations 4
time step continuity errors : sum local = 2.562792e-06, global = 1.387214e-06, cumulative = 1.641239e-05
ExecutionTime = 6.35 s  ClockTime = 6 s

Time = 30

DILUPBiCGStab:  Solving for Ux, Initial residual = 0.03052301, Final residual = 0.002651624, No Iterations 1
DILUPBiCGStab:  Solving for Uy, Initial residual = 0.04169497, Final residual = 0.003203105, No Iterations 1
DILUPBiCGStab:  Solving for Uz, Initial residual = 0.04091673, Final residual = 0.003266727, No Iterations 1
GAMG:  Solving for p, Initial residual = 0.1034301, Final residual = 0.0008769939, No Iterations 2
GAMG:  Solving for p, Initial residual = 0.0008741998, Final residual = 4.663048e-06, No Iterations 4
time step continuity errors : sum local = 2.70067e-06, global = 1.460441e-06, cumulative = 1.787283e-05
ExecutionTime = 6.55 s  ClockTime = 6 s

Time = 31

DILUPBiCGStab:  Solving for Ux, Initial residual = 0.03076079, Final residual = 0.002632187, No Iterations 1
DILUPBiCGStab:  Solving for Uy, Initial residual = 0.04094889, Final residual = 0.003075515, No Iterations 1
DILUPBiCGStab:  Solving for Uz, Initial residual = 0.03975468, Final residual = 0.003109034, No Iterations 1
GAMG:  Solving for p, Initial residual = 0.1078261, Final residual = 0.0009086164, No Iterations 2
GAMG:  Solving for p, Initial residual = 0.0008988705, Final residual = 4.855385e-06, No Iterations 4
time step continuity errors : sum local = 2.685003e-06, global = 1.421764e-06, cumulative = 1.929459e-05
ExecutionTime = 6.76 s  ClockTime = 6 s

Time = 32

DILUPBiCGStab:  Solving for Ux, Initial residual = 0.03107377, Final residual = 0.002623014, No Iterations 1
DILUPBiCGStab:  Solving for Uy, Initial residual = 0.04016328, Final residual = 0.002954985, No Iterations 1
DILUPBiCGStab:  Solving for Uz, Initial residual = 0.0387031, Final residual = 0.002957391, No Iterations 1
GAMG:  Solving for p, Initial residual = 0.1089647, Final residual = 0.0008907218, No Iterations 2
GAMG:  Solving for p, Initial residual = 0.0008752001, Final residual = 4.713649e-06, No Iterations 4
time step continuity errors : sum local = 2.545683e-06, global = 1.316344e-06, cumulative = 2.061094e-05
ExecutionTime = 6.98 s  ClockTime = 7 s

Time = 33

DILUPBiCGStab:  Solving for Ux, Initial residual = 0.03139353, Final residual = 0.002613883, No Iterations 1
DILUPBiCGStab:  Solving for Uy, Initial residual = 0.03952144, Final residual = 0.002840855, No Iterations 1
DILUPBiCGStab:  Solving for Uz, Initial residual = 0.03772138, Final residual = 0.002817945, No Iterations 1
GAMG:  Solving for p, Initial residual = 0.1079759, Final residual = 0.0008506863, No Iterations 2
GAMG:  Solving for p, Initial residual = 0.0008326852, Final residual = 4.55903e-06, No Iterations 4
time step continuity errors : sum local = 2.425414e-06, global = 1.235407e-06, cumulative = 2.184635e-05
ExecutionTime = 7.17 s  ClockTime = 7 s

Time = 34

DILUPBiCGStab:  Solving for Ux, Initial residual = 0.03167149, Final residual = 0.002611362, No Iterations 1
DILUPBiCGStab:  Solving for Uy, Initial residual = 0.03873321, Final residual = 0.002738722, No Iterations 1
DILUPBiCGStab:  Solving for Uz, Initial residual = 0.03672797, Final residual = 0.002689367, No Iterations 1
GAMG:  Solving for p, Initial residual = 0.1064488, Final residual = 0.00081622, No Iterations 2
GAMG:  Solving for p, Initial residual = 0.0007958284, Final residual = 4.444529e-06, No Iterations 4
time step continuity errors : sum local = 2.347091e-06, global = 1.191599e-06, cumulative = 2.303794e-05
ExecutionTime = 7.36 s  ClockTime = 7 s

Time = 35

DILUPBiCGStab:  Solving for Ux, Initial residual = 0.03196682, Final residual = 0.002616344, No Iterations 1
DILUPBiCGStab:  Solving for Uy, Initial residual = 0.03812051, Final residual = 0.002661182, No Iterations 1
DILUPBiCGStab:  Solving for Uz, Initial residual = 0.035859, Final residual = 0.002579825, No Iterations 1
GAMG:  Solving for p, Initial residual = 0.1022774, Final residual = 0.0007862064, No Iterations 2
GAMG:  Solving for p, Initial residual = 0.0007667304, Final residual = 4.303393e-06, No Iterations 4
time step continuity errors : sum local = 2.262416e-06, global = 1.149204e-06, cumulative = 2.418715e-05
ExecutionTime = 7.56 s  ClockTime = 7 s

Time = 36

DILUPBiCGStab:  Solving for Ux, Initial residual = 0.03224112, Final residual = 0.002623515, No Iterations 1
DILUPBiCGStab:  Solving for Uy, Initial residual = 0.03745233, Final residual = 0.002581442, No Iterations 1
DILUPBiCGStab:  Solving for Uz, Initial residual = 0.03495639, Final residual = 0.002473595, No Iterations 1
GAMG:  Solving for p, Initial residual = 0.09820278, Final residual = 0.0007612983, No Iterations 2
GAMG:  Solving for p, Initial residual = 0.0007420121, Final residual = 4.151686e-06, No Iterations 4
time step continuity errors : sum local = 2.177082e-06, global = 1.104294e-06, cumulative = 2.529144e-05
ExecutionTime = 7.75 s  ClockTime = 7 s

Time = 37

DILUPBiCGStab:  Solving for Ux, Initial residual = 0.0325267, Final residual = 0.002615481, No Iterations 1
DILUPBiCGStab:  Solving for Uy, Initial residual = 0.03688363, Final residual = 0.002510433, No Iterations 1
DILUPBiCGStab:  Solving for Uz, Initial residual = 0.03416542, Final residual = 0.002376446, No Iterations 1
GAMG:  Solving for p, Initial residual = 0.0928807, Final residual = 0.0007388372, No Iterations 2
GAMG:  Solving for p, Initial residual = 0.0007202038, Final residual = 3.99634e-06, No Iterations 4
time step continuity errors : sum local = 2.093071e-06, global = 1.061582e-06, cumulative = 2.635303e-05
ExecutionTime = 7.95 s  ClockTime = 8 s

Time = 38

DILUPBiCGStab:  Solving for Ux, Initial residual = 0.03282932, Final residual = 0.00259267, No Iterations 1
DILUPBiCGStab:  Solving for Uy, Initial residual = 0.03646618, Final residual = 0.00245456, No Iterations 1
DILUPBiCGStab:  Solving for Uz, Initial residual = 0.03347811, Final residual = 0.002292597, No Iterations 1
GAMG:  Solving for p, Initial residual = 0.08702983, Final residual = 0.0007070287, No Iterations 2
GAMG:  Solving for p, Initial residual = 0.0006889994, Final residual = 3.766354e-06, No Iterations 4
time step continuity errors : sum local = 1.976321e-06, global = 9.838508e-07, cumulative = 2.733688e-05
ExecutionTime = 8.17 s  ClockTime = 8 s

Time = 39

DILUPBiCGStab:  Solving for Ux, Initial residual = 0.03312845, Final residual = 0.002566001, No Iterations 1
DILUPBiCGStab:  Solving for Uy, Initial residual = 0.03605866, Final residual = 0.002398278, No Iterations 1
DILUPBiCGStab:  Solving for Uz, Initial residual = 0.03283201, Final residual = 0.002204784, No Iterations 1
GAMG:  Solving for p, Initial residual = 0.08265028, Final residual = 0.0006765423, No Iterations 2
GAMG:  Solving for p, Initial residual = 0.0006603014, Final residual = 3.567508e-06, No Iterations 4
time step continuity errors : sum local = 1.867738e-06, global = 9.096677e-07, cumulative = 2.824654e-05
ExecutionTime = 8.36 s  ClockTime = 8 s

Time = 40

DILUPBiCGStab:  Solving for Ux, Initial residual = 0.03346347, Final residual = 0.002521319, No Iterations 1
DILUPBiCGStab:  Solving for Uy, Initial residual = 0.03591122, Final residual = 0.00236252, No Iterations 1
DILUPBiCGStab:  Solving for Uz, Initial residual = 0.03236437, Final residual = 0.00213971, No Iterations 1
GAMG:  Solving for p, Initial residual = 0.07852764, Final residual = 0.0006471656, No Iterations 2
GAMG:  Solving for p, Initial residual = 0.0006321437, Final residual = 3.364186e-06, No Iterations 4
time step continuity errors : sum local = 1.759125e-06, global = 8.324183e-07, cumulative = 2.907896e-05
ExecutionTime = 8.57 s  ClockTime = 8 s

Time = 41

DILUPBiCGStab:  Solving for Ux, Initial residual = 0.03373991, Final residual = 0.002473304, No Iterations 1
DILUPBiCGStab:  Solving for Uy, Initial residual = 0.03584983, Final residual = 0.002325415, No Iterations 1
DILUPBiCGStab:  Solving for Uz, Initial residual = 0.03194759, Final residual = 0.002072841, No Iterations 1
GAMG:  Solving for p, Initial residual = 0.07472191, Final residual = 0.0006226266, No Iterations 2
GAMG:  Solving for p, Initial residual = 0.0006089501, Final residual = 3.189442e-06, No Iterations 4
time step continuity errors : sum local = 1.661317e-06, global = 7.610684e-07, cumulative = 2.984003e-05
ExecutionTime = 8.77 s  ClockTime = 8 s

Time = 42

DILUPBiCGStab:  Solving for Ux, Initial residual = 0.03402273, Final residual = 0.002410441, No Iterations 1
DILUPBiCGStab:  Solving for Uy, Initial residual = 0.0359298, Final residual = 0.002289125, No Iterations 1
DILUPBiCGStab:  Solving for Uz, Initial residual = 0.03158048, Final residual = 0.002011216, No Iterations 1
GAMG:  Solving for p, Initial residual = 0.07165028, Final residual = 0.0005930561, No Iterations 2
GAMG:  Solving for p, Initial residual = 0.0005813822, Final residual = 2.998321e-06, No Iterations 4
time step continuity errors : sum local = 1.552433e-06, global = 6.755953e-07, cumulative = 3.051563e-05
ExecutionTime = 8.96 s  ClockTime = 9 s

Time = 43

DILUPBiCGStab:  Solving for Ux, Initial residual = 0.03422014, Final residual = 0.002342972, No Iterations 1
DILUPBiCGStab:  Solving for Uy, Initial residual = 0.03624751, Final residual = 0.002252718, No Iterations 1
DILUPBiCGStab:  Solving for Uz, Initial residual = 0.03135041, Final residual = 0.001952013, No Iterations 1
GAMG:  Solving for p, Initial residual = 0.06886951, Final residual = 0.0005683383, No Iterations 2
GAMG:  Solving for p, Initial residual = 0.0005583124, Final residual = 2.842925e-06, No Iterations 4
time step continuity errors : sum local = 1.456801e-06, global = 6.011768e-07, cumulative = 3.11168e-05
ExecutionTime = 9.17 s  ClockTime = 9 s

Time = 44

DILUPBiCGStab:  Solving for Ux, Initial residual = 0.03430184, Final residual = 0.002258511, No Iterations 1
DILUPBiCGStab:  Solving for Uy, Initial residual = 0.03654926, Final residual = 0.002214696, No Iterations 1
DILUPBiCGStab:  Solving for Uz, Initial residual = 0.03108152, Final residual = 0.001898277, No Iterations 1
GAMG:  Solving for p, Initial residual = 0.06572622, Final residual = 0.000548257, No Iterations 2
GAMG:  Solving for p, Initial residual = 0.0005397794, Final residual = 2.713722e-06, No Iterations 4
time step continuity errors : sum local = 1.37513e-06, global = 5.344728e-07, cumulative = 3.165128e-05
ExecutionTime = 9.38 s  ClockTime = 9 s

Time = 45

DILUPBiCGStab:  Solving for Ux, Initial residual = 0.03417444, Final residual = 0.002171941, No Iterations 1
DILUPBiCGStab:  Solving for Uy, Initial residual = 0.03680077, Final residual = 0.002157967, No Iterations 1
DILUPBiCGStab:  Solving for Uz, Initial residual = 0.03081574, Final residual = 0.00183918, No Iterations 1
GAMG:  Solving for p, Initial residual = 0.06274896, Final residual = 0.0005333191, No Iterations 2
GAMG:  Solving for p, Initial residual = 0.0005260719, Final residual = 2.619818e-06, No Iterations 4
time step continuity errors : sum local = 1.305939e-06, global = 4.723006e-07, cumulative = 3.212358e-05
ExecutionTime = 9.58 s  ClockTime = 9 s

Time = 46

DILUPBiCGStab:  Solving for Ux, Initial residual = 0.03386836, Final residual = 0.002058611, No Iterations 1
DILUPBiCGStab:  Solving for Uy, Initial residual = 0.03700585, Final residual = 0.002096468, No Iterations 1
DILUPBiCGStab:  Solving for Uz, Initial residual = 0.03051824, Final residual = 0.001782385, No Iterations 1
GAMG:  Solving for p, Initial residual = 0.05987252, Final residual = 0.0005071987, No Iterations 2
GAMG:  Solving for p, Initial residual = 0.0005016523, Final residual = 2.463256e-06, No Iterations 4
time step continuity errors : sum local = 1.206459e-06, global = 3.785288e-07, cumulative = 3.25021e-05
ExecutionTime = 9.78 s  ClockTime = 10 s

Time = 47

DILUPBiCGStab:  Solving for Ux, Initial residual = 0.03320246, Final residual = 0.00193104, No Iterations 1
DILUPBiCGStab:  Solving for Uy, Initial residual = 0.03707575, Final residual = 0.002021927, No Iterations 1
DILUPBiCGStab:  Solving for Uz, Initial residual = 0.03021071, Final residual = 0.00172261, No Iterations 1
GAMG:  Solving for p, Initial residual = 0.05735579, Final residual = 0.0004878436, No Iterations 2
GAMG:  Solving for p, Initial residual = 0.0004834243, Final residual = 2.35035e-06, No Iterations 4
time step continuity errors : sum local = 1.129566e-06, global = 3.016234e-07, cumulative = 3.280373e-05
ExecutionTime = 9.98 s  ClockTime = 10 s

Time = 48

DILUPBiCGStab:  Solving for Ux, Initial residual = 0.03225787, Final residual = 0.001778529, No Iterations 1
DILUPBiCGStab:  Solving for Uy, Initial residual = 0.03693613, Final residual = 0.001928693, No Iterations 1
DILUPBiCGStab:  Solving for Uz, Initial residual = 0.02981475, Final residual = 0.00165563, No Iterations 1
GAMG:  Solving for p, Initial residual = 0.05567939, Final residual = 0.000476689, No Iterations 2
GAMG:  Solving for p, Initial residual = 0.0004728902, Final residual = 2.28074e-06, No Iterations 4
time step continuity errors : sum local = 1.071368e-06, global = 2.460417e-07, cumulative = 3.304977e-05
ExecutionTime = 10.17 s  ClockTime = 10 s

Time = 49

DILUPBiCGStab:  Solving for Ux, Initial residual = 0.03093341, Final residual = 0.001613062, No Iterations 1
DILUPBiCGStab:  Solving for Uy, Initial residual = 0.03640979, Final residual = 0.001813629, No Iterations 1
DILUPBiCGStab:  Solving for Uz, Initial residual = 0.02925233, Final residual = 0.001571608, No Iterations 1
GAMG:  Solving for p, Initial residual = 0.05493079, Final residual = 0.0004694066, No Iterations 2
GAMG:  Solving for p, Initial residual = 0.0004667207, Final residual = 2.222664e-06, No Iterations 4
time step continuity errors : sum local = 1.017212e-06, global = 1.761865e-07, cumulative = 3.322596e-05
ExecutionTime = 10.37 s  ClockTime = 10 s

Time = 50

DILUPBiCGStab:  Solving for Ux, Initial residual = 0.02928471, Final residual = 0.001429705, No Iterations 1
DILUPBiCGStab:  Solving for Uy, Initial residual = 0.03538531, Final residual = 0.001681696, No Iterations 1
DILUPBiCGStab:  Solving for Uz, Initial residual = 0.02845171, Final residual = 0.001466943, No Iterations 1
GAMG:  Solving for p, Initial residual = 0.05304891, Final residual = 0.0004534905, No Iterations 2
GAMG:  Solving for p, Initial residual = 0.0004521301, Final residual = 2.104621e-06, No Iterations 4
time step continuity errors : sum local = 9.371659e-07, global = 1.031239e-07, cumulative = 3.332908e-05
ExecutionTime = 10.58 s  ClockTime = 10 s

Time = 51

DILUPBiCGStab:  Solving for Ux, Initial residual = 0.02743202, Final residual = 0.001260959, No Iterations 1
DILUPBiCGStab:  Solving for Uy, Initial residual = 0.03409945, Final residual = 0.001524536, No Iterations 1
DILUPBiCGStab:  Solving for Uz, Initial residual = 0.02747406, Final residual = 0.001340922, No Iterations 1
GAMG:  Solving for p, Initial residual = 0.04992695, Final residual = 0.0004340595, No Iterations 2
GAMG:  Solving for p, Initial residual = 0.000433779, Final residual = 1.966001e-06, No Iterations 4
time step continuity errors : sum local = 8.47909e-07, global = 1.581069e-08, cumulative = 3.334489e-05
ExecutionTime = 10.78 s  ClockTime = 10 s

Time = 52

DILUPBiCGStab:  Solving for Ux, Initial residual = 0.02543146, Final residual = 0.001093654, No Iterations 1
DILUPBiCGStab:  Solving for Uy, Initial residual = 0.03249167, Final residual = 0.001356066, No Iterations 1
DILUPBiCGStab:  Solving for Uz, Initial residual = 0.02624539, Final residual = 0.001202485, No Iterations 1
GAMG:  Solving for p, Initial residual = 0.04716853, Final residual = 0.0003971816, No Iterations 2
GAMG:  Solving for p, Initial residual = 0.0003984573, Final residual = 1.772203e-06, No Iterations 4
time step continuity errors : sum local = 7.380812e-07, global = -1.5874e-07, cumulative = 3.318615e-05
ExecutionTime = 10.98 s  ClockTime = 11 s

Time = 53

DILUPBiCGStab:  Solving for Ux, Initial residual = 0.02332968, Final residual = 0.0009330608, No Iterations 1
DILUPBiCGStab:  Solving for Uy, Initial residual = 0.03031409, Final residual = 0.001192628, No Iterations 1
DILUPBiCGStab:  Solving for Uz, Initial residual = 0.02470849, Final residual = 0.001052731, No Iterations 1
GAMG:  Solving for p, Initial residual = 0.04410212, Final residual = 0.0003497047, No Iterations 2
GAMG:  Solving for p, Initial residual = 0.0003523446, Final residual = 1.644713e-06, No Iterations 4
time step continuity errors : sum local = 6.595999e-07, global = -3.494797e-07, cumulative = 3.283667e-05
ExecutionTime = 11.17 s  ClockTime = 11 s

Time = 54

DILUPBiCGStab:  Solving for Ux, Initial residual = 0.02123876, Final residual = 0.0007748483, No Iterations 1
DILUPBiCGStab:  Solving for Uy, Initial residual = 0.02800844, Final residual = 0.001035397, No Iterations 1
DILUPBiCGStab:  Solving for Uz, Initial residual = 0.02296632, Final residual = 0.0009193679, No Iterations 1
GAMG:  Solving for p, Initial residual = 0.04073095, Final residual = 0.0003090437, No Iterations 2
GAMG:  Solving for p, Initial residual = 0.0003128236, Final residual = 2.02041e-06, No Iterations 4
time step continuity errors : sum local = 7.764023e-07, global = -4.683203e-07, cumulative = 3.236835e-05
ExecutionTime = 11.37 s  ClockTime = 11 s

Time = 55

DILUPBiCGStab:  Solving for Ux, Initial residual = 0.01905441, Final residual = 0.0006291167, No Iterations 1
DILUPBiCGStab:  Solving for Uy, Initial residual = 0.02581845, Final residual = 0.0008764169, No Iterations 1
DILUPBiCGStab:  Solving for Uz, Initial residual = 0.02108723, Final residual = 0.0007770093, No Iterations 1
GAMG:  Solving for p, Initial residual = 0.03903455, Final residual = 0.000312502, No Iterations 2
GAMG:  Solving for p, Initial residual = 0.0003177398, Final residual = 2.335581e-06, No Iterations 4
time step continuity errors : sum local = 8.55168e-07, global = -5.191544e-07, cumulative = 3.18492e-05
ExecutionTime = 11.57 s  ClockTime = 11 s

Time = 56

DILUPBiCGStab:  Solving for Ux, Initial residual = 0.01679288, Final residual = 0.0004938949, No Iterations 1
DILUPBiCGStab:  Solving for Uy, Initial residual = 0.02344645, Final residual = 0.0007393736, No Iterations 1
DILUPBiCGStab:  Solving for Uz, Initial residual = 0.01909368, Final residual = 0.0006584889, No Iterations 1
GAMG:  Solving for p, Initial residual = 0.03863359, Final residual = 0.0003387697, No Iterations 2
GAMG:  Solving for p, Initial residual = 0.0003459315, Final residual = 2.652514e-06, No Iterations 4
time step continuity errors : sum local = 9.230861e-07, global = -5.592456e-07, cumulative = 3.128995e-05
ExecutionTime = 11.77 s  ClockTime = 11 s

Time = 57

DILUPBiCGStab:  Solving for Ux, Initial residual = 0.0144685, Final residual = 0.0003999914, No Iterations 1
DILUPBiCGStab:  Solving for Uy, Initial residual = 0.02131368, Final residual = 0.0006274273, No Iterations 1
DILUPBiCGStab:  Solving for Uz, Initial residual = 0.01717334, Final residual = 0.0005446356, No Iterations 1
GAMG:  Solving for p, Initial residual = 0.03854599, Final residual = 0.0003612706, No Iterations 2
GAMG:  Solving for p, Initial residual = 0.0003700664, Final residual = 2.894774e-06, No Iterations 4
time step continuity errors : sum local = 9.56315e-07, global = -5.753436e-07, cumulative = 3.071461e-05
ExecutionTime = 11.97 s  ClockTime = 12 s

Time = 58

DILUPBiCGStab:  Solving for Ux, Initial residual = 0.01223137, Final residual = 0.0003194442, No Iterations 1
DILUPBiCGStab:  Solving for Uy, Initial residual = 0.0194704, Final residual = 0.000529877, No Iterations 1
DILUPBiCGStab:  Solving for Uz, Initial residual = 0.01525039, Final residual = 0.0004544415, No Iterations 1
GAMG:  Solving for p, Initial residual = 0.03799271, Final residual = 0.0003743888, No Iterations 2
GAMG:  Solving for p, Initial residual = 0.0003841152, Final residual = 3.025706e-06, No Iterations 4
time step continuity errors : sum local = 9.505629e-07, global = -5.670008e-07, cumulative = 3.014761e-05
ExecutionTime = 12.16 s  ClockTime = 12 s

Time = 59

DILUPBiCGStab:  Solving for Ux, Initial residual = 0.01017412, Final residual = 0.0002464381, No Iterations 1
DILUPBiCGStab:  Solving for Uy, Initial residual = 0.01785281, Final residual = 0.0004347911, No Iterations 1
DILUPBiCGStab:  Solving for Uz, Initial residual = 0.01336422, Final residual = 0.0003738845, No Iterations 1
GAMG:  Solving for p, Initial residual = 0.03702406, Final residual = 0.0001076664, No Iterations 3
GAMG:  Solving for p, Initial residual = 0.0001106392, Final residual = 9.520302e-07, No Iterations 4
time step continuity errors : sum local = 2.846705e-07, global = -1.640794e-07, cumulative = 2.998353e-05
ExecutionTime = 12.38 s  ClockTime = 12 s

Time = 60

DILUPBiCGStab:  Solving for Ux, Initial residual = 0.008384744, Final residual = 0.0001845612, No Iterations 1
DILUPBiCGStab:  Solving for Uy, Initial residual = 0.01624645, Final residual = 0.0003319677, No Iterations 1
DILUPBiCGStab:  Solving for Uz, Initial residual = 0.01163945, Final residual = 0.0002951628, No Iterations 1
GAMG:  Solving for p, Initial residual = 0.03561, Final residual = 0.0001052619, No Iterations 3
GAMG:  Solving for p, Initial residual = 0.0001081231, Final residual = 9.282454e-07, No Iterations 4
time step continuity errors : sum local = 2.652656e-07, global = -1.52101e-07, cumulative = 2.983143e-05
ExecutionTime = 12.6 s  ClockTime = 12 s

Time = 61

DILUPBiCGStab:  Solving for Ux, Initial residual = 0.006877537, Final residual = 0.000133185, No Iterations 1
DILUPBiCGStab:  Solving for Uy, Initial residual = 0.01463124, Final residual = 0.0002601279, No Iterations 1
DILUPBiCGStab:  Solving for Uz, Initial residual = 0.01012315, Final residual = 0.0002286887, No Iterations 1
GAMG:  Solving for p, Initial residual = 0.03373556, Final residual = 0.0001013218, No Iterations 3
GAMG:  Solving for p, Initial residual = 0.000103946, Final residual = 8.90269e-07, No Iterations 4
time step continuity errors : sum local = 2.440268e-07, global = -1.393281e-07, cumulative = 2.96921e-05
ExecutionTime = 12.83 s  ClockTime = 13 s

Time = 62

DILUPBiCGStab:  Solving for Ux, Initial residual = 0.005652783, Final residual = 0.0001001001, No Iterations 1
DILUPBiCGStab:  Solving for Uy, Initial residual = 0.01293687, Final residual = 0.0002106564, No Iterations 1
DILUPBiCGStab:  Solving for Uz, Initial residual = 0.008781027, Final residual = 0.0001751106, No Iterations 1
GAMG:  Solving for p, Initial residual = 0.03133758, Final residual = 9.637649e-05, No Iterations 3
GAMG:  Solving for p, Initial residual = 9.870631e-05, Final residual = 8.42671e-07, No Iterations 4
time step continuity errors : sum local = 2.22385e-07, global = -1.26497e-07, cumulative = 2.95656e-05
ExecutionTime = 13.04 s  ClockTime = 13 s

Time = 63

DILUPBiCGStab:  Solving for Ux, Initial residual = 0.004658489, Final residual = 8.066293e-05, No Iterations 1
DILUPBiCGStab:  Solving for Uy, Initial residual = 0.01139421, Final residual = 0.0001789245, No Iterations 1
DILUPBiCGStab:  Solving for Uz, Initial residual = 0.007554763, Final residual = 0.0001378852, No Iterations 1
GAMG:  Solving for p, Initial residual = 0.02869476, Final residual = 8.862928e-05, No Iterations 3
GAMG:  Solving for p, Initial residual = 9.059213e-05, Final residual = 7.732967e-07, No Iterations 4
time step continuity errors : sum local = 1.973134e-07, global = -1.117489e-07, cumulative = 2.945385e-05
ExecutionTime = 13.24 s  ClockTime = 13 s

Time = 64

DILUPBiCGStab:  Solving for Ux, Initial residual = 0.003837411, Final residual = 6.575949e-05, No Iterations 1
DILUPBiCGStab:  Solving for Uy, Initial residual = 0.009854995, Final residual = 0.0001424039, No Iterations 1
DILUPBiCGStab:  Solving for Uz, Initial residual = 0.006489723, Final residual = 0.0001169254, No Iterations 1
GAMG:  Solving for p, Initial residual = 0.02606769, Final residual = 8.013723e-05, No Iterations 3
GAMG:  Solving for p, Initial residual = 8.173563e-05, Final residual = 6.971449e-07, No Iterations 4
time step continuity errors : sum local = 1.725221e-07, global = -9.739487e-08, cumulative = 2.935646e-05
ExecutionTime = 13.46 s  ClockTime = 13 s

Time = 65

DILUPBiCGStab:  Solving for Ux, Initial residual = 0.003203982, Final residual = 6.227805e-05, No Iterations 1
DILUPBiCGStab:  Solving for Uy, Initial residual = 0.008505331, Final residual = 0.0001193133, No Iterations 1
DILUPBiCGStab:  Solving for Uz, Initial residual = 0.005613869, Final residual = 9.509956e-05, No Iterations 1
GAMG:  Solving for p, Initial residual = 0.02341916, Final residual = 7.072605e-05, No Iterations 3
GAMG:  Solving for p, Initial residual = 7.198071e-05, Final residual = 6.139734e-07, No Iterations 4
time step continuity errors : sum local = 1.479289e-07, global = -8.32792e-08, cumulative = 2.927318e-05
ExecutionTime = 13.67 s  ClockTime = 13 s

Time = 66

DILUPBiCGStab:  Solving for Ux, Initial residual = 0.002722954, Final residual = 5.840231e-05, No Iterations 1
DILUPBiCGStab:  Solving for Uy, Initial residual = 0.007483779, Final residual = 9.931984e-05, No Iterations 1
DILUPBiCGStab:  Solving for Uz, Initial residual = 0.004872783, Final residual = 8.071231e-05, No Iterations 1
GAMG:  Solving for p, Initial residual = 0.02108222, Final residual = 0.0002062066, No Iterations 2
GAMG:  Solving for p, Initial residual = 0.0002093663, Final residual = 1.684744e-06, No Iterations 4
time step continuity errors : sum local = 3.96724e-07, global = -2.280319e-07, cumulative = 2.904515e-05
ExecutionTime = 13.87 s  ClockTime = 14 s

Time = 67

DILUPBiCGStab:  Solving for Ux, Initial residual = 0.00229675, Final residual = 5.035906e-05, No Iterations 1
DILUPBiCGStab:  Solving for Uy, Initial residual = 0.006551701, Final residual = 8.749091e-05, No Iterations 1
DILUPBiCGStab:  Solving for Uz, Initial residual = 0.004188994, Final residual = 7.038017e-05, No Iterations 1
GAMG:  Solving for p, Initial residual = 0.0188579, Final residual = 0.0001780382, No Iterations 2
GAMG:  Solving for p, Initial residual = 0.0001803869, Final residual = 1.459589e-06, No Iterations 4
time step continuity errors : sum local = 3.370641e-07, global = -1.925837e-07, cumulative = 2.885256e-05
ExecutionTime = 14.07 s  ClockTime = 14 s

Time = 68

DILUPBiCGStab:  Solving for Ux, Initial residual = 0.001919289, Final residual = 4.231869e-05, No Iterations 1
DILUPBiCGStab:  Solving for Uy, Initial residual = 0.005616753, Final residual = 7.744413e-05, No Iterations 1
DILUPBiCGStab:  Solving for Uz, Initial residual = 0.003652144, Final residual = 6.20794e-05, No Iterations 1
GAMG:  Solving for p, Initial residual = 0.01678109, Final residual = 0.0001535733, No Iterations 2
GAMG:  Solving for p, Initial residual = 0.0001552914, Final residual = 1.258621e-06, No Iterations 4
time step continuity errors : sum local = 2.85682e-07, global = -1.626335e-07, cumulative = 2.868993e-05
ExecutionTime = 14.27 s  ClockTime = 14 s

Time = 69

DILUPBiCGStab:  Solving for Ux, Initial residual = 0.001618734, Final residual = 3.383402e-05, No Iterations 1
DILUPBiCGStab:  Solving for Uy, Initial residual = 0.00483721, Final residual = 6.867629e-05, No Iterations 1
DILUPBiCGStab:  Solving for Uz, Initial residual = 0.003174693, Final residual = 5.491756e-05, No Iterations 1
GAMG:  Solving for p, Initial residual = 0.0147086, Final residual = 0.0001324357, No Iterations 2
GAMG:  Solving for p, Initial residual = 0.0001336532, Final residual = 1.0892e-06, No Iterations 4
time step continuity errors : sum local = 2.438514e-07, global = -1.38319e-07, cumulative = 2.855161e-05
ExecutionTime = 14.47 s  ClockTime = 14 s

Time = 70

DILUPBiCGStab:  Solving for Ux, Initial residual = 0.001371109, Final residual = 2.730894e-05, No Iterations 1
DILUPBiCGStab:  Solving for Uy, Initial residual = 0.004162909, Final residual = 6.071968e-05, No Iterations 1
DILUPBiCGStab:  Solving for Uz, Initial residual = 0.00274702, Final residual = 4.864255e-05, No Iterations 1
GAMG:  Solving for p, Initial residual = 0.01279464, Final residual = 0.0001145965, No Iterations 2
GAMG:  Solving for p, Initial residual = 0.0001154412, Final residual = 9.469377e-07, No Iterations 4
time step continuity errors : sum local = 2.096928e-07, global = -1.185756e-07, cumulative = 2.843303e-05
ExecutionTime = 14.67 s  ClockTime = 14 s

Time = 71

DILUPBiCGStab:  Solving for Ux, Initial residual = 0.001164948, Final residual = 2.260874e-05, No Iterations 1
DILUPBiCGStab:  Solving for Uy, Initial residual = 0.003573508, Final residual = 5.347058e-05, No Iterations 1
DILUPBiCGStab:  Solving for Uz, Initial residual = 0.002367894, Final residual = 4.286923e-05, No Iterations 1
GAMG:  Solving for p, Initial residual = 0.01106702, Final residual = 9.955753e-05, No Iterations 2
GAMG:  Solving for p, Initial residual = 0.0001001287, Final residual = 8.271118e-07, No Iterations 4
time step continuity errors : sum local = 1.816155e-07, global = -1.024278e-07, cumulative = 2.833061e-05
ExecutionTime = 14.87 s  ClockTime = 15 s

Time = 72

DILUPBiCGStab:  Solving for Ux, Initial residual = 0.0009913807, Final residual = 1.892499e-05, No Iterations 1
DILUPBiCGStab:  Solving for Uy, Initial residual = 0.003061034, Final residual = 4.68254e-05, No Iterations 1
DILUPBiCGStab:  Solving for Uz, Initial residual = 0.002035029, Final residual = 3.752646e-05, No Iterations 1
GAMG:  Solving for p, Initial residual = 0.009537243, Final residual = 8.663526e-05, No Iterations 2
GAMG:  Solving for p, Initial residual = 8.701626e-05, Final residual = 7.238464e-07, No Iterations 4
time step continuity errors : sum local = 1.579155e-07, global = -8.886351e-08, cumulative = 2.824174e-05
ExecutionTime = 15.08 s  ClockTime = 15 s

Time = 73

DILUPBiCGStab:  Solving for Ux, Initial residual = 0.0008444209, Final residual = 1.591918e-05, No Iterations 1
DILUPBiCGStab:  Solving for Uy, Initial residual = 0.002618205, Final residual = 4.080262e-05, No Iterations 1
DILUPBiCGStab:  Solving for Uz, Initial residual = 0.001744738, Final residual = 3.263984e-05, No Iterations 1
GAMG:  Solving for p, Initial residual = 0.008193806, Final residual = 7.53641e-05, No Iterations 2
GAMG:  Solving for p, Initial residual = 7.561166e-05, Final residual = 6.330798e-07, No Iterations 4
time step continuity errors : sum local = 1.374493e-07, global = -7.72017e-08, cumulative = 2.816454e-05
ExecutionTime = 15.27 s  ClockTime = 15 s

Time = 74

DILUPBiCGStab:  Solving for Ux, Initial residual = 0.0007197086, Final residual = 1.343811e-05, No Iterations 1
DILUPBiCGStab:  Solving for Uy, Initial residual = 0.002236274, Final residual = 3.540628e-05, No Iterations 1
DILUPBiCGStab:  Solving for Uz, Initial residual = 0.001493264, Final residual = 2.824048e-05, No Iterations 1
GAMG:  Solving for p, Initial residual = 0.007021493, Final residual = 6.547554e-05, No Iterations 2
GAMG:  Solving for p, Initial residual = 6.563159e-05, Final residual = 5.526596e-07, No Iterations 4
time step continuity errors : sum local = 1.195708e-07, global = -6.705272e-08, cumulative = 2.809749e-05
ExecutionTime = 15.48 s  ClockTime = 15 s

Time = 75

DILUPBiCGStab:  Solving for Ux, Initial residual = 0.0006133392, Final residual = 1.137184e-05, No Iterations 1
DILUPBiCGStab:  Solving for Uy, Initial residual = 0.001908201, Final residual = 3.06256e-05, No Iterations 1
DILUPBiCGStab:  Solving for Uz, Initial residual = 0.001275781, Final residual = 2.433095e-05, No Iterations 1
GAMG:  Solving for p, Initial residual = 0.006003662, Final residual = 5.677256e-05, No Iterations 2
GAMG:  Solving for p, Initial residual = 5.68689e-05, Final residual = 4.812966e-07, No Iterations 4
time step continuity errors : sum local = 1.038695e-07, global = -5.816745e-08, cumulative = 2.803932e-05
ExecutionTime = 15.67 s  ClockTime = 15 s

Time = 76

DILUPBiCGStab:  Solving for Ux, Initial residual = 0.0005225124, Final residual = 9.634794e-06, No Iterations 1
DILUPBiCGStab:  Solving for Uy, Initial residual = 0.001626968, Final residual = 2.642168e-05, No Iterations 1
DILUPBiCGStab:  Solving for Uz, Initial residual = 0.001088495, Final residual = 2.088926e-05, No Iterations 1
GAMG:  Solving for p, Initial residual = 0.00512358, Final residual = 4.910692e-05, No Iterations 2
GAMG:  Solving for p, Initial residual = 4.916612e-05, Final residual = 4.179568e-07, No Iterations 4
time step continuity errors : sum local = 9.003669e-08, global = -5.036075e-08, cumulative = 2.798896e-05
ExecutionTime = 15.86 s  ClockTime = 16 s

Time = 77

DILUPBiCGStab:  Solving for Ux, Initial residual = 0.0004449256, Final residual = 8.169748e-06, No Iterations 1
DILUPBiCGStab:  Solving for Uy, Initial residual = 0.001386409, Final residual = 2.274219e-05, No Iterations 1
DILUPBiCGStab:  Solving for Uz, Initial residual = 0.0009275574, Final residual = 1.788215e-05, No Iterations 1
GAMG:  Solving for p, Initial residual = 0.004366382, Final residual = 4.235471e-05, No Iterations 2
GAMG:  Solving for p, Initial residual = 4.239145e-05, Final residual = 3.617806e-07, No Iterations 4
time step continuity errors : sum local = 7.783219e-08, global = -4.348901e-08, cumulative = 2.794547e-05
ExecutionTime = 16.06 s  ClockTime = 16 s

Time = 78

DILUPBiCGStab:  Solving for Ux, Initial residual = 0.0003786303, Final residual = 6.930936e-06, No Iterations 1
DILUPBiCGStab:  Solving for Uy, Initial residual = 0.001180868, Final residual = 1.953786e-05, No Iterations 1
DILUPBiCGStab:  Solving for Uz, Initial residual = 0.0007892835, Final residual = 1.526946e-05, No Iterations 1
GAMG:  Solving for p, Initial residual = 0.003716562, Final residual = 3.641699e-05, No Iterations 2
GAMG:  Solving for p, Initial residual = 3.643969e-05, Final residual = 9.977498e-07, No Iterations 3
time step continuity errors : sum local = 2.144443e-07, global = -1.224825e-07, cumulative = 2.782299e-05
ExecutionTime = 16.26 s  ClockTime = 16 s

Time = 79

DILUPBiCGStab:  Solving for Ux, Initial residual = 0.0003220738, Final residual = 5.883221e-06, No Iterations 1
DILUPBiCGStab:  Solving for Uy, Initial residual = 0.00100619, Final residual = 1.67724e-05, No Iterations 1
DILUPBiCGStab:  Solving for Uz, Initial residual = 0.0006715891, Final residual = 1.303304e-05, No Iterations 1
GAMG:  Solving for p, Initial residual = 0.003160268, Final residual = 3.133234e-05, No Iterations 2
GAMG:  Solving for p, Initial residual = 3.134643e-05, Final residual = 8.611554e-07, No Iterations 3
time step continuity errors : sum local = 1.84956e-07, global = -1.054632e-07, cumulative = 2.771753e-05
ExecutionTime = 16.45 s  ClockTime = 16 s

Time = 80

DILUPBiCGStab:  Solving for Ux, Initial residual = 0.0002736993, Final residual = 4.992729e-06, No Iterations 1
DILUPBiCGStab:  Solving for Uy, Initial residual = 0.000855666, Final residual = 1.434391e-05, No Iterations 1
DILUPBiCGStab:  Solving for Uz, Initial residual = 0.0005698068, Final residual = 1.107902e-05, No Iterations 1
GAMG:  Solving for p, Initial residual = 0.002684686, Final residual = 2.678889e-05, No Iterations 2
GAMG:  Solving for p, Initial residual = 2.679738e-05, Final residual = 7.37927e-07, No Iterations 3
time step continuity errors : sum local = 1.584087e-07, global = -9.020788e-08, cumulative = 2.762732e-05
ExecutionTime = 16.64 s  ClockTime = 16 s

Time = 81

DILUPBiCGStab:  Solving for Ux, Initial residual = 0.0002324484, Final residual = 4.23729e-06, No Iterations 1
DILUPBiCGStab:  Solving for Uy, Initial residual = 0.0007269948, Final residual = 1.224259e-05, No Iterations 1
DILUPBiCGStab:  Solving for Uz, Initial residual = 0.0004827928, Final residual = 9.402498e-06, No Iterations 1
GAMG:  Solving for p, Initial residual = 0.002280243, Final residual = 6.731839e-06, No Iterations 3
GAMG:  Solving for p, Initial residual = 6.733505e-06, Final residual = 6.295736e-07, No Iterations 2
time step continuity errors : sum local = 1.350954e-07, global = -7.684575e-08, cumulative = 2.755047e-05
ExecutionTime = 16.83 s  ClockTime = 17 s

Time = 82

DILUPBiCGStab:  Solving for Ux, Initial residual = 0.0001973137, Final residual = 3.595989e-06, No Iterations 1
DILUPBiCGStab:  Solving for Uy, Initial residual = 0.0006173624, Final residual = 1.043715e-05, No Iterations 1
DILUPBiCGStab:  Solving for Uz, Initial residual = 0.0004087995, Final residual = 7.974726e-06, No Iterations 1
GAMG:  Solving for p, Initial residual = 0.001935577, Final residual = 5.721104e-06, No Iterations 3
GAMG:  Solving for p, Initial residual = 5.722091e-06, Final residual = 5.358945e-07, No Iterations 2
time step continuity errors : sum local = 1.149638e-07, global = -6.532581e-08, cumulative = 2.748515e-05
ExecutionTime = 17.03 s  ClockTime = 17 s

Time = 83

DILUPBiCGStab:  Solving for Ux, Initial residual = 0.000167407, Final residual = 3.051349e-06, No Iterations 1
DILUPBiCGStab:  Solving for Uy, Initial residual = 0.0005240612, Final residual = 8.889494e-06, No Iterations 1
DILUPBiCGStab:  Solving for Uz, Initial residual = 0.0003460365, Final residual = 6.760609e-06, No Iterations 1
GAMG:  Solving for p, Initial residual = 0.001641818, Final residual = 4.855413e-06, No Iterations 3
GAMG:  Solving for p, Initial residual = 4.855989e-06, Final residual = 4.555052e-07, No Iterations 2
time step continuity errors : sum local = 9.770032e-08, global = -5.54598e-08, cumulative = 2.742969e-05
ExecutionTime = 17.22 s  ClockTime = 17 s

Time = 84

DILUPBiCGStab:  Solving for Ux, Initial residual = 0.0001419692, Final residual = 2.588694e-06, No Iterations 1
DILUPBiCGStab:  Solving for Uy, Initial residual = 0.0004446193, Final residual = 7.563725e-06, No Iterations 1
DILUPBiCGStab:  Solving for Uz, Initial residual = 0.0002927183, Final residual = 5.727922e-06, No Iterations 1
GAMG:  Solving for p, Initial residual = 0.00139165, Final residual = 4.115457e-06, No Iterations 3
GAMG:  Solving for p, Initial residual = 4.115783e-06, Final residual = 3.866668e-07, No Iterations 2
time step continuity errors : sum local = 8.292498e-08, global = -4.702605e-08, cumulative = 2.738266e-05
ExecutionTime = 17.41 s  ClockTime = 17 s

Time = 85

DILUPBiCGStab:  Solving for Ux, Initial residual = 0.0001203498, Final residual = 2.195639e-06, No Iterations 1
DILUPBiCGStab:  Solving for Uy, Initial residual = 0.0003770321, Final residual = 6.429931e-06, No Iterations 1
DILUPBiCGStab:  Solving for Uz, Initial residual = 0.0002474639, Final residual = 4.850046e-06, No Iterations 1
GAMG:  Solving for p, Initial residual = 0.00117879, Final residual = 3.483641e-06, No Iterations 3
GAMG:  Solving for p, Initial residual = 3.483814e-06, Final residual = 3.277836e-07, No Iterations 2
time step continuity errors : sum local = 7.02913e-08, global = -3.98235e-08, cumulative = 2.734284e-05
ExecutionTime = 17.61 s  ClockTime = 17 s

Time = 86

DILUPBiCGStab:  Solving for Ux, Initial residual = 0.0001019894, Final residual = 1.861846e-06, No Iterations 1
DILUPBiCGStab:  Solving for Uy, Initial residual = 0.0003195772, Final residual = 5.461955e-06, No Iterations 1
DILUPBiCGStab:  Solving for Uz, Initial residual = 0.0002090864, Final residual = 4.104638e-06, No Iterations 1
GAMG:  Solving for p, Initial residual = 0.000997935, Final residual = 9.964654e-06, No Iterations 2
GAMG:  Solving for p, Initial residual = 9.964844e-06, Final residual = 8.947714e-07, No Iterations 2
time step continuity errors : sum local = 1.918708e-07, global = -1.121156e-07, cumulative = 2.723072e-05
ExecutionTime = 17.79 s  ClockTime = 18 s

Time = 87

DILUPBiCGStab:  Solving for Ux, Initial residual = 8.648614e-05, Final residual = 1.580327e-06, No Iterations 1
DILUPBiCGStab:  Solving for Uy, Initial residual = 0.0002715743, Final residual = 4.653593e-06, No Iterations 1
DILUPBiCGStab:  Solving for Uz, Initial residual = 0.000177292, Final residual = 3.488984e-06, No Iterations 1
GAMG:  Solving for p, Initial residual = 0.0008444871, Final residual = 2.51972e-06, No Iterations 3
GAMG:  Solving for p, Initial residual = 2.519764e-06, Final residual = 7.669497e-07, No Iterations 1
time step continuity errors : sum local = 1.644545e-07, global = -9.585745e-08, cumulative = 2.713486e-05
ExecutionTime = 17.95 s  ClockTime = 18 s

Time = 88

DILUPBiCGStab:  Solving for Ux, Initial residual = 7.324998e-05, Final residual = 1.339366e-06, No Iterations 1
DILUPBiCGStab:  Solving for Uy, Initial residual = 0.0002297455, Final residual = 3.943091e-06, No Iterations 1
DILUPBiCGStab:  Solving for Uz, Initial residual = 0.0001494604, Final residual = 2.945636e-06, No Iterations 1
GAMG:  Solving for p, Initial residual = 0.0007142038, Final residual = 2.129451e-06, No Iterations 3
GAMG:  Solving for p, Initial residual = 2.129476e-06, Final residual = 6.48837e-07, No Iterations 1
time step continuity errors : sum local = 1.391248e-07, global = -8.095561e-08, cumulative = 2.705391e-05
ExecutionTime = 18.13 s  ClockTime = 18 s

Time = 89

DILUPBiCGStab:  Solving for Ux, Initial residual = 6.202579e-05, Final residual = 1.134846e-06, No Iterations 1
DILUPBiCGStab:  Solving for Uy, Initial residual = 0.0001942171, Final residual = 3.337864e-06, No Iterations 1
DILUPBiCGStab:  Solving for Uz, Initial residual = 0.0001258717, Final residual = 2.484303e-06, No Iterations 1
GAMG:  Solving for p, Initial residual = 0.0006037414, Final residual = 1.789289e-06, No Iterations 3
GAMG:  Solving for p, Initial residual = 1.789298e-06, Final residual = 5.455818e-07, No Iterations 1
time step continuity errors : sum local = 1.169833e-07, global = -6.797681e-08, cumulative = 2.698593e-05
ExecutionTime = 18.31 s  ClockTime = 18 s

Time = 90

DILUPBiCGStab:  Solving for Ux, Initial residual = 5.253067e-05, Final residual = 9.617884e-07, No Iterations 1
DILUPBiCGStab:  Solving for Uy, Initial residual = 0.0001643216, Final residual = 2.828242e-06, No Iterations 1
DILUPBiCGStab:  Solving for Uz, Initial residual = 0.0001061218, Final residual = 2.098118e-06, No Iterations 1
GAMG:  Solving for p, Initial residual = 0.0005101781, Final residual = 5.068991e-06, No Iterations 2
GAMG:  Solving for p, Initial residual = 5.068972e-06, Final residual = 4.584604e-07, No Iterations 2
time step continuity errors : sum local = 9.830262e-08, global = -5.704201e-08, cumulative = 2.692889e-05
ExecutionTime = 18.48 s  ClockTime = 18 s

Time = 91

DILUPBiCGStab:  Solving for Ux, Initial residual = 4.44995e-05, Final residual = 8.153257e-07, No Iterations 1
DILUPBiCGStab:  Solving for Uy, Initial residual = 0.0001391436, Final residual = 2.398557e-06, No Iterations 1
DILUPBiCGStab:  Solving for Uz, Initial residual = 8.957389e-05, Final residual = 1.774444e-06, No Iterations 1
GAMG:  Solving for p, Initial residual = 0.0004309324, Final residual = 4.258194e-06, No Iterations 2
GAMG:  Solving for p, Initial residual = 4.258184e-06, Final residual = 3.856901e-07, No Iterations 2
time step continuity errors : sum local = 8.269865e-08, global = -4.79169e-08, cumulative = 2.688097e-05
ExecutionTime = 18.67 s  ClockTime = 18 s

Time = 92

DILUPBiCGStab:  Solving for Ux, Initial residual = 3.770183e-05, Final residual = 6.912202e-07, No Iterations 1
DILUPBiCGStab:  Solving for Uy, Initial residual = 0.0001178606, Final residual = 2.034941e-06, No Iterations 1
DILUPBiCGStab:  Solving for Uz, Initial residual = 7.56493e-05, Final residual = 1.501665e-06, No Iterations 1
GAMG:  Solving for p, Initial residual = 0.0003638981, Final residual = 3.579149e-06, No Iterations 2
GAMG:  Solving for p, Initial residual = 3.579144e-06, Final residual = 3.246935e-07, No Iterations 2
time step continuity errors : sum local = 6.961942e-08, global = -4.027809e-08, cumulative = 2.684069e-05
ExecutionTime = 18.85 s  ClockTime = 19 s

Time = 93

DILUPBiCGStab:  Solving for Ux, Initial residual = 3.194553e-05, Final residual = 5.86005e-07, No Iterations 1
DILUPBiCGStab:  Solving for Uy, Initial residual = 9.984625e-05, Final residual = 1.726493e-06, No Iterations 1
DILUPBiCGStab:  Solving for Uz, Initial residual = 6.39106e-05, Final residual = 1.271097e-06, No Iterations 1
GAMG:  Solving for p, Initial residual = 0.0003072143, Final residual = 3.007785e-06, No Iterations 2
GAMG:  Solving for p, Initial residual = 3.007785e-06, Final residual = 8.93382e-07, No Iterations 1
time step continuity errors : sum local = 1.915538e-07, global = -1.162159e-07, cumulative = 2.672448e-05
ExecutionTime = 19.01 s  ClockTime = 19 s

Time = 94

DILUPBiCGStab:  Solving for Ux, Initial residual = 2.714543e-05, Final residual = 4.984801e-07, No Iterations 1
DILUPBiCGStab:  Solving for Uy, Initial residual = 8.53446e-05, Final residual = 1.479275e-06, No Iterations 1
DILUPBiCGStab:  Solving for Uz, Initial residual = 5.464798e-05, Final residual = 1.089869e-06, No Iterations 1
GAMG:  Solving for p, Initial residual = 0.0002594126, Final residual = 7.839255e-07, No Iterations 3
GAMG:  Solving for p, Initial residual = 7.839287e-07, Final residual = 7.839287e-07, No Iterations 0
time step continuity errors : sum local = 1.680837e-07, global = -1.014543e-07, cumulative = 2.662302e-05
ExecutionTime = 19.17 s  ClockTime = 19 s

Time = 95

DILUPBiCGStab:  Solving for Ux, Initial residual = 2.299124e-05, Final residual = 4.22236e-07, No Iterations 1
DILUPBiCGStab:  Solving for Uy, Initial residual = 7.207557e-05, Final residual = 1.250497e-06, No Iterations 1
DILUPBiCGStab:  Solving for Uz, Initial residual = 4.599401e-05, Final residual = 9.185908e-07, No Iterations 1
GAMG:  Solving for p, Initial residual = 0.000218924, Final residual = 6.637989e-07, No Iterations 3
GAMG:  Solving for p, Initial residual = 6.638018e-07, Final residual = 6.638018e-07, No Iterations 0
time step continuity errors : sum local = 1.42326e-07, global = -8.567535e-08, cumulative = 2.653735e-05
ExecutionTime = 19.33 s  ClockTime = 19 s

Time = 96

DILUPBiCGStab:  Solving for Ux, Initial residual = 1.946421e-05, Final residual = 3.574169e-07, No Iterations 1
DILUPBiCGStab:  Solving for Uy, Initial residual = 6.073576e-05, Final residual = 1.054551e-06, No Iterations 1
DILUPBiCGStab:  Solving for Uz, Initial residual = 3.859012e-05, Final residual = 7.716293e-07, No Iterations 1
GAMG:  Solving for p, Initial residual = 0.0001846765, Final residual = 5.522215e-07, No Iterations 3
GAMG:  Solving for p, Initial residual = 5.522239e-07, Final residual = 5.522239e-07, No Iterations 0
time step continuity errors : sum local = 1.184017e-07, global = -7.115289e-08, cumulative = 2.64662e-05
ExecutionTime = 19.5 s  ClockTime = 19 s

Time = 97

DILUPBiCGStab:  Solving for Ux, Initial residual = 1.649038e-05, Final residual = 3.027884e-07, No Iterations 1
DILUPBiCGStab:  Solving for Uy, Initial residual = 5.130955e-05, Final residual = 8.917474e-07, No Iterations 1
DILUPBiCGStab:  Solving for Uz, Initial residual = 3.248498e-05, Final residual = 6.50426e-07, No Iterations 1
GAMG:  Solving for p, Initial residual = 0.0001557721, Final residual = 1.537667e-06, No Iterations 2
GAMG:  Solving for p, Initial residual = 1.537671e-06, Final residual = 4.586846e-07, No Iterations 1
time step continuity errors : sum local = 9.834551e-08, global = -5.900243e-08, cumulative = 2.640719e-05
ExecutionTime = 19.67 s  ClockTime = 19 s

Time = 98

DILUPBiCGStab:  Solving for Ux, Initial residual = 1.398309e-05, Final residual = 2.567487e-07, No Iterations 1
DILUPBiCGStab:  Solving for Uy, Initial residual = 4.347164e-05, Final residual = 7.563762e-07, No Iterations 1
DILUPBiCGStab:  Solving for Uz, Initial residual = 2.745168e-05, Final residual = 5.505263e-07, No Iterations 1
GAMG:  Solving for p, Initial residual = 0.0001313876, Final residual = 1.283166e-06, No Iterations 2
GAMG:  Solving for p, Initial residual = 1.28317e-06, Final residual = 3.829654e-07, No Iterations 1
time step continuity errors : sum local = 8.211016e-08, global = -4.916883e-08, cumulative = 2.635802e-05
ExecutionTime = 19.86 s  ClockTime = 20 s

Time = 99

DILUPBiCGStab:  Solving for Ux, Initial residual = 1.186325e-05, Final residual = 2.178209e-07, No Iterations 1
DILUPBiCGStab:  Solving for Uy, Initial residual = 3.688676e-05, Final residual = 6.425452e-07, No Iterations 1
DILUPBiCGStab:  Solving for Uz, Initial residual = 2.324712e-05, Final residual = 4.669978e-07, No Iterations 1
GAMG:  Solving for p, Initial residual = 0.0001108168, Final residual = 1.075713e-06, No Iterations 2
GAMG:  Solving for p, Initial residual = 1.075716e-06, Final residual = 3.212604e-07, No Iterations 1
time step continuity errors : sum local = 6.887977e-08, global = -4.116276e-08, cumulative = 2.631686e-05
ExecutionTime = 20.03 s  ClockTime = 20 s

Time = 100

DILUPBiCGStab:  Solving for Ux, Initial residual = 1.006718e-05, Final residual = 1.848236e-07, No Iterations 1
DILUPBiCGStab:  Solving for Uy, Initial residual = 3.130896e-05, Final residual = 5.459561e-07, No Iterations 1
DILUPBiCGStab:  Solving for Uz, Initial residual = 1.969722e-05, Final residual = 3.963047e-07, No Iterations 1
GAMG:  Solving for p, Initial residual = 9.34737e-05, Final residual = 9.034663e-07, No Iterations 2
GAMG:  Solving for p, Initial residual = 9.034691e-07, Final residual = 9.034691e-07, No Iterations 0
time step continuity errors : sum local = 1.937069e-07, global = -1.232625e-07, cumulative = 2.61936e-05
ExecutionTime = 20.19 s  ClockTime = 20 s


SIMPLE solution converged in 100 iterations

End

