/*---------------------------------------------------------------------------*\
| =========                 |                                                 |
| \\      /  F ield         | OpenFOAM: The Open Source CFD Toolbox           |
|  \\    /   O peration     | Version:  2106                                  |
|   \\  /    A nd           | Website:  www.openfoam.com                      |
|    \\/     M anipulation  |                                                 |
\*---------------------------------------------------------------------------*/
Build  : _f815a12b-20210902 OPENFOAM=2106
Arch   : "LSB;label=32;scalar=64"
Exec   : geometricCalc
Date   : Jan 09 2022
Time   : 20:19:06
Host   : ServaasComputer
PID    : 31140
I/O    : uncollated
Case   : /home/servaas/OpenFOAM/servaas-v2106/topoTest/topoTest
nProcs : 1
trapFpe: Floating point exception trapping enabled (FOAM_SIGFPE).
fileModificationChecking : Monitoring run-time modified files using timeStampMaster (fileModificationSkew 5, maxFileModificationPolls 20)
allowSystemOperations : Allowing user-supplied system call operations

// * * * * * * * * * * * * * * * * * * * * * * * * * * * * * * * * * * * * * //
Create time

Overriding OptimisationSwitches according to controlDict
    fileHandler (unregistered)
    fileModificationSkew 0;

    maxMasterFileBufferSize 1e+09;

    maxThreadFileBufferSize 1e+09;

    mpiBufferSize (unregistered)
Create mesh for time = 0

Calculating zone volumes and areas:
zoneName = zone0: cellZoneVol = 0.0002416992\ nFaces = 20\ area = 0.02625\ projected area = 0.006660098\ proj Dir = (-0.9984277 -0.05232538 -0.02010613)\
zoneName = zone1: cellZoneVol = 0.0001933594\ nFaces = 16\ area = 0.02109375\ projected area = 0.005484715\ proj Dir = (-0.9942114 -0.1044958 -0.02498633)\
zoneName = zone2: cellZoneVol = 0.0001933594\ nFaces = 16\ area = 0.02109375\ projected area = 0.005798686\ proj Dir = (-0.9756302 -0.2073766 -0.071698)\
zoneName = zone3: cellZoneVol = 0.0002900391\ nFaces = 22\ area = 0.02929688\ projected area = 0.007138313\ proj Dir = (-0.9407303 -0.3056617 -0.1469608)\
zoneName = zone4: cellZoneVol = 0.0002416992\ nFaces = 20\ area = 0.02625\ projected area = 0.007673776\ proj Dir = (-0.8942777 -0.3981581 -0.2042975)\
zoneName = zone5: cellZoneVol = 0.0003867188\ nFaces = 28\ area = 0.03679687\ projected area = 0.00999922\ proj Dir = (-0.845264 -0.4880134 -0.2176503)\
zoneName = zone6: cellZoneVol = 0.0002900391\ nFaces = 26\ area = 0.03445313\ projected area = 0.008810077\ proj Dir = (-0.7851986 -0.5704801 -0.2408645)\
zoneName = zone7: cellZoneVol = 0.0002900391\ nFaces = 22\ area = 0.02882812\ projected area = 0.006658422\ proj Dir = (-0.715838 -0.6445434 -0.2685884)\
zoneName = zone8: cellZoneVol = 0.0002416992\ nFaces = 20\ area = 0.02625\ projected area = 0.006393532\ proj Dir = (-0.6384091 -0.7090252 -0.2995279)\
zoneName = zone9: cellZoneVol = 0.0002900391\ nFaces = 22\ area = 0.02929687\ projected area = 0.008146534\ proj Dir = (-0.5546021 -0.7633444 -0.3312429)\
zoneName = zone10: cellZoneVol = 0.0002900391\ nFaces = 24\ area = 0.03164063\ projected area = 0.008124545\ proj Dir = (-0.4669326 -0.808751 -0.3576251)\
zoneName = zone11: cellZoneVol = 0.0001933594\ nFaces = 16\ area = 0.02109375\ projected area = 0.005277411\ proj Dir = (-0.3775035 -0.8478866 -0.3722626)\
zoneName = zone12: cellZoneVol = 0.0002416992\ nFaces = 20\ area = 0.02625\ projected area = 0.006068665\ proj Dir = (-0.2847766 -0.8764521 -0.3882449)\
zoneName = zone13: cellZoneVol = 0.0001933594\ nFaces = 16\ area = 0.02109375\ projected area = 0.005083643\ proj Dir = (-0.190346 -0.8955074 -0.402287)\
zoneName = zone14: cellZoneVol = 0.0002900391\ nFaces = 22\ area = 0.0290625\ projected area = 0.00724726\ proj Dir = (-0.09530942 -0.9068085 -0.4106269)\
zoneName = zone15: cellZoneVol = 0.0002416992\ nFaces = 20\ area = 0.02648438\ projected area = 0.006504511\ proj Dir = (-1.209078e-15 -0.9106859 -0.4130995)\
zoneName = zone16: cellZoneVol = 0.0001933594\ nFaces = 16\ area = 0.02109375\ projected area = 0.004911821\ proj Dir = (0.09532926 -0.9069973 -0.4102051)\
zoneName = zone17: cellZoneVol = 0.0002416992\ nFaces = 20\ area = 0.02625\ projected area = 0.005842786\ proj Dir = (0.1904356 -0.8959289 -0.401305)\
zoneName = zone18: cellZoneVol = 0.0001933594\ nFaces = 16\ area = 0.02109375\ projected area = 0.005199527\ proj Dir = (0.2848319 -0.8766224 -0.3878195)\
zoneName = zone19: cellZoneVol = 0.0003383789\ nFaces = 26\ area = 0.03421875\ projected area = 0.008413482\ proj Dir = (0.3773341 -0.8475062 -0.3732991)\
zoneName = zone20: cellZoneVol = 0.0002416992\ nFaces = 20\ area = 0.02648437\ projected area = 0.007054191\ proj Dir = (0.4674022 -0.8095643 -0.355163)\
zoneName = zone21: cellZoneVol = 0.0002416992\ nFaces = 20\ area = 0.02625\ projected area = 0.006404965\ proj Dir = (0.5555146 -0.7646002 -0.3267875)\
zoneName = zone22: cellZoneVol = 0.0002416992\ nFaces = 20\ area = 0.02625\ projected area = 0.006376951\ proj Dir = (0.6391036 -0.7097964 -0.2962021)\
zoneName = zone23: cellZoneVol = 0.0002416992\ nFaces = 22\ area = 0.0290625\ projected area = 0.007204219\ proj Dir = (0.716446 -0.6450909 -0.2656366)\
zoneName = zone24: cellZoneVol = 0.0003383789\ nFaces = 26\ area = 0.03421875\ projected area = 0.008980974\ proj Dir = (0.7868807 -0.5717022 -0.232326)\
zoneName = zone25: cellZoneVol = 0.0003867187\ nFaces = 28\ area = 0.03679687\ projected area = 0.009893271\ proj Dir = (0.8494748 -0.4904445 -0.194568)\
zoneName = zone26: cellZoneVol = 0.0003867187\ nFaces = 28\ area = 0.03703125\ projected area = 0.009081244\ proj Dir = (0.902364 -0.4017583 -0.1559794)\
zoneName = zone27: cellZoneVol = 0.0001933594\ nFaces = 16\ area = 0.02109375\ projected area = 0.006045721\ proj Dir = (0.9438694 -0.3066818 -0.1227061)\
zoneName = zone28: cellZoneVol = 0.0002416992\ nFaces = 20\ area = 0.02648437\ projected area = 0.006265001\ proj Dir = (0.9736185 -0.206949 -0.09612014)\
zoneName = zone29: cellZoneVol = 0.0003383789\ nFaces = 26\ area = 0.03421875\ projected area = 0.007277697\ proj Dir = (0.992171 -0.1042814 -0.06871785)\
zoneName = zone30: cellZoneVol = 0.0003867187\ nFaces = 28\ area = 0.03679687\ projected area = 0.007922608\ proj Dir = (0.9995578 -1.327069e-15 -0.02973533)\
zoneName = zone31: cellZoneVol = 0.0003383789\ nFaces = 26\ area = 0.03421875\ projected area = 0.006998948\ proj Dir = (0.9942532 0.1045002 0.02324401)\
zoneName = zone32: cellZoneVol = 0.0002416992\ nFaces = 20\ area = 0.02648437\ projected area = 0.006215695\ proj Dir = (0.9749051 0.2072225 0.08135652)\
zoneName = zone33: cellZoneVol = 0.0003383789\ nFaces = 24\ area = 0.031875\ projected area = 0.007196872\ proj Dir = (0.9445985 0.3069187 0.116338)\
zoneName = zone34: cellZoneVol = 0.0003867187\ nFaces = 28\ area = 0.03703125\ projected area = 0.009053693\ proj Dir = (0.9031183 0.4020942 0.1506574)\
zoneName = zone35: cellZoneVol = 0.0003867187\ nFaces = 30\ area = 0.03960937\ projected area = 0.009876286\ proj Dir = (0.8452696 0.4880166 0.2176214)\
zoneName = zone36: cellZoneVol = 0.0003383789\ nFaces = 24\ area = 0.031875\ projected area = 0.008616426\ proj Dir = (0.7771288 0.5646172 0.2779895)\
zoneName = zone37: cellZoneVol = 0.0003383789\ nFaces = 24\ area = 0.031875\ projected area = 0.008885196\ proj Dir = (0.7000918 0.6303655 0.3354264)\
zoneName = zone38: cellZoneVol = 0.0003383789\ nFaces = 28\ area = 0.03703125\ projected area = 0.01028761\ proj Dir = (0.6205295 0.6891679 0.3741534)\
zoneName = zone39: cellZoneVol = 0.0003867187\ nFaces = 30\ area = 0.03984375\ projected area = 0.01104942\ proj Dir = (0.5409774 0.7445916 0.3910586)\
zoneName = zone40: cellZoneVol = 0.0003383789\ nFaces = 24\ area = 0.031875\ projected area = 0.008913203\ proj Dir = (0.4554718 0.7889002 0.412531)\
zoneName = zone41: cellZoneVol = 0.0003383789\ nFaces = 26\ area = 0.03445312\ projected area = 0.009275032\ proj Dir = (0.369049 0.8288977 0.4203944)\
zoneName = zone42: cellZoneVol = 0.0002900391\ nFaces = 22\ area = 0.02929687\ projected area = 0.008172921\ proj Dir = (0.2752804 0.847226 0.4543444)\
zoneName = zone43: cellZoneVol = 0.0003383789\ nFaces = 24\ area = 0.031875\ projected area = 0.008203152\ proj Dir = (0.1849737 0.8702327 0.4565959)\
zoneName = zone44: cellZoneVol = 0.0004350586\ nFaces = 30\ area = 0.04007812\ projected area = 0.01128356\ proj Dir = (0.09412987 0.8955858 0.4348168)\
zoneName = zone45: cellZoneVol = 0.0003383789\ nFaces = 26\ area = 0.0346875\ projected area = 0.009000537\ proj Dir = (1.220497e-15 0.9192865 0.393589)\
zoneName = zone46: cellZoneVol = 0.0003383789\ nFaces = 24\ area = 0.031875\ projected area = 0.007770952\ proj Dir = (-0.09399294 0.8942831 0.4375193)\
zoneName = zone47: cellZoneVol = 0.0002900391\ nFaces = 22\ area = 0.02929687\ projected area = 0.007959934\ proj Dir = (-0.1852367 0.8714699 0.4541228)\
zoneName = zone48: cellZoneVol = 0.0003383789\ nFaces = 26\ area = 0.03445312\ projected area = 0.009078905\ proj Dir = (-0.2770896 0.8527943 0.4426773)\
zoneName = zone49: cellZoneVol = 0.0003383789\ nFaces = 24\ area = 0.031875\ projected area = 0.008728925\ proj Dir = (-0.3694829 0.8298723 0.4180842)\
zoneName = zone50: cellZoneVol = 0.0003383789\ nFaces = 26\ area = 0.03445313\ projected area = 0.009455736\ proj Dir = (-0.4546704 0.7875123 0.4160519)\
zoneName = zone51: cellZoneVol = 0.0003383789\ nFaces = 28\ area = 0.03703125\ projected area = 0.01021207\ proj Dir = (-0.5395318 0.7426019 0.396797)\
zoneName = zone52: cellZoneVol = 0.0003867187\ nFaces = 28\ area = 0.03703125\ projected area = 0.01025318\ proj Dir = (-0.6234973 0.6924639 0.3629667)\
zoneName = zone53: cellZoneVol = 0.0003383789\ nFaces = 24\ area = 0.031875\ projected area = 0.008846369\ proj Dir = (-0.7040618 0.6339401 0.3200266)\
zoneName = zone54: cellZoneVol = 0.0003867188\ nFaces = 28\ area = 0.03703125\ projected area = 0.00998042\ proj Dir = (-0.7768999 0.5644508 0.2789658)\
zoneName = zone55: cellZoneVol = 0.0002900391\ nFaces = 24\ area = 0.03164062\ projected area = 0.008679427\ proj Dir = (-0.8422816 0.4862915 0.2325559)\
zoneName = zone56: cellZoneVol = 0.0003383789\ nFaces = 24\ area = 0.031875\ projected area = 0.007759214\ proj Dir = (-0.9007928 0.4010588 0.1665059)\
zoneName = zone57: cellZoneVol = 0.0002900391\ nFaces = 22\ area = 0.0290625\ projected area = 0.006730037\ proj Dir = (-0.9454493 0.3071951 0.1084286)\
zoneName = zone58: cellZoneVol = 0.0003867187\ nFaces = 28\ area = 0.03679687\ projected area = 0.00757774\ proj Dir = (-0.9767987 0.2076249 0.05249933)\
zoneName = zone59: cellZoneVol = 0.0003383789\ nFaces = 26\ area = 0.03421875\ projected area = 0.00821101\ proj Dir = (-0.9944052 0.1045162 0.01531726)\
zoneName = zone60: cellZoneVol = 0.0003383789\ nFaces = 26\ area = 0.03445312\ projected area = 0.009766868\ proj Dir = (0.3807926 -0.4857089 -0.7868188)\
zoneName = zone61: cellZoneVol = 0.0002900391\ nFaces = 22\ area = 0.02882812\ projected area = 0.00889214\ proj Dir = (0.9417071 -0.2012474 -0.2696059)\
zoneName = zone62: cellZoneVol = 0.0002416992\ nFaces = 20\ area = 0.02625\ projected area = 0.008007199\ proj Dir = (0.8385004 0.3405322 0.4253879)\
zoneName = zone63: cellZoneVol = 0.0004350586\ nFaces = 30\ area = 0.03960937\ projected area = 0.01148625\ proj Dir = (0.6138331 0.5094201 0.6030755)\
zoneName = zone64: cellZoneVol = 0.0003383789\ nFaces = 26\ area = 0.03445312\ projected area = 0.007790668\ proj Dir = (0.9724985 0.2282654 -0.04627762)\
zoneName = zone65: cellZoneVol = 0.0002900391\ nFaces = 24\ area = 0.03164062\ projected area = 0.006960936\ proj Dir = (0.9663876 0.1512585 -0.2078841)\
zoneName = zone66: cellZoneVol = 0.0003383789\ nFaces = 26\ area = 0.03445312\ projected area = 0.009454018\ proj Dir = (0.8348139 0.3025264 0.4599603)\
zoneName = zone67: cellZoneVol = 0.0004350586\ nFaces = 30\ area = 0.03960937\ projected area = 0.01042232\ proj Dir = (0.442659 0.2613547 0.8577568)\
zoneName = zone68: cellZoneVol = 0.0003867187\ nFaces = 28\ area = 0.03703125\ projected area = 0.008816896\ proj Dir = (0.0151133 0.2091712 0.9777622)\
zoneName = zone69: cellZoneVol = 0.0002416992\ nFaces = 20\ area = 0.02648437\ projected area = 0.006086196\ proj Dir = (-0.05098025 0.2000209 0.9784644)\
zoneName = zone70: cellZoneVol = 0.0003867187\ nFaces = 28\ area = 0.03703125\ projected area = 0.009182209\ proj Dir = (0.2406104 0.2983759 0.9236224)\
zoneName = zone71: cellZoneVol = 0.0003383789\ nFaces = 24\ area = 0.031875\ projected area = 0.007975136\ proj Dir = (0.2945272 0.3235465 0.899206)\
zoneName = zone72: cellZoneVol = 0.0003867187\ nFaces = 28\ area = 0.03703125\ projected area = 0.008231904\ proj Dir = (0.102571 0.2397244 0.9654074)\
zoneName = zone73: cellZoneVol = 0.0002900391\ nFaces = 22\ area = 0.02929687\ projected area = 0.006243185\ proj Dir = (0.01654755 0.2006214 0.9795291)\
zoneName = zone74: cellZoneVol = 0.0004350586\ nFaces = 30\ area = 0.04007812\ projected area = 0.009361457\ proj Dir = (0.01364684 0.2064121 0.97837)\
zoneName = zone75: cellZoneVol = 0.0002900391\ nFaces = 22\ area = 0.02929687\ projected area = 0.006238262\ proj Dir = (0.003774196 0.2102615 0.9776379)\
zoneName = zone76: cellZoneVol = 0.0003383789\ nFaces = 24\ area = 0.031875\ projected area = 0.006225493\ proj Dir = (-0.003843609 0.2062874 0.9784839)\
zoneName = zone77: cellZoneVol = 0.0003383789\ nFaces = 26\ area = 0.03445312\ projected area = 0.007671885\ proj Dir = (-0.03360786 0.2146113 0.9761211)\
zoneName = zone78: cellZoneVol = 0.0003383789\ nFaces = 24\ area = 0.031875\ projected area = 0.007298178\ proj Dir = (-0.1663745 0.2776159 0.946176)\
zoneName = zone79: cellZoneVol = 0.0003383789\ nFaces = 26\ area = 0.03445312\ projected area = 0.009063617\ proj Dir = (-0.2775305 0.3182325 0.9064794)\
zoneName = zone80: cellZoneVol = 0.0003383789\ nFaces = 24\ area = 0.031875\ projected area = 0.007047869\ proj Dir = (-0.1313842 0.2541758 0.9581925)\
zoneName = zone81: cellZoneVol = 0.0004350586\ nFaces = 30\ area = 0.03960937\ projected area = 0.008903155\ proj Dir = (0.03241855 0.1988266 0.9794984)\
zoneName = zone82: cellZoneVol = 0.0004833984\ nFaces = 32\ area = 0.0421875\ projected area = 0.009589024\ proj Dir = (-0.1168481 0.2090688 0.9708948)\
zoneName = zone83: cellZoneVol = 0.0003867187\ nFaces = 28\ area = 0.03703125\ projected area = 0.009514488\ proj Dir = (-0.3721426 0.2366721 0.8974944)\
zoneName = zone84: cellZoneVol = 0.0001933594\ nFaces = 18\ area = 0.02367187\ projected area = 0.006585557\ proj Dir = (-0.530466 0.2592696 0.8070843)\
zoneName = zone85: cellZoneVol = 0.0004350586\ nFaces = 28\ area = 0.03703125\ projected area = 0.0102786\ proj Dir = (-0.7089046 0.2670107 0.652809)\
zoneName = zone86: cellZoneVol = 0.0003867187\ nFaces = 28\ area = 0.03703125\ projected area = 0.009057154\ proj Dir = (-0.9336844 0.1998004 0.2971755)\
zoneName = zone87: cellZoneVol = 0.0003867187\ nFaces = 28\ area = 0.03679687\ projected area = 0.008275116\ proj Dir = (-0.966461 0.01494469 -0.2563781)\
zoneName = zone88: cellZoneVol = 0.0002416992\ nFaces = 20\ area = 0.02625\ projected area = 0.00792091\ proj Dir = (-0.5904807 -0.2352077 -0.7720168)\
zoneName = zone89: cellZoneVol = 0.0001933594\ nFaces = 16\ area = 0.02109375\ projected area = 0.00537201\ proj Dir = (-0.4777983 -0.2668816 -0.8369486)\
zoneName = zone90: cellZoneVol = 0.0002900391\ nFaces = 22\ area = 0.02929687\ projected area = 0.006755443\ proj Dir = (-0.7715672 0.05817887 -0.6334819)\
zoneName = zone91: cellZoneVol = 0.0003383789\ nFaces = 26\ area = 0.03421875\ projected area = 0.007927718\ proj Dir = (-0.95887 0.2669837 -0.09637456)\
zoneName = zone92: cellZoneVol = 0.0004350586\ nFaces = 30\ area = 0.03960937\ projected area = 0.007605862\ proj Dir = (-0.9909481 0.0408642 -0.1278746)\
zoneName = zone93: cellZoneVol = 0.0003867187\ nFaces = 28\ area = 0.03703125\ projected area = 0.01050106\ proj Dir = (-0.7368258 -0.388864 -0.5530575)\
zoneName = zone94: cellZoneVol = 0.0002900391\ nFaces = 24\ area = 0.03164062\ projected area = 0.00953806\ proj Dir = (-0.2791632 -0.4750144 -0.8345233)\
zoneName = zone95: cellZoneVol = 0.0002900391\ nFaces = 22\ area = 0.02882812\ projected area = 0.008871151\ proj Dir = (-0.2193611 -0.3702522 -0.9026594)\
zoneName = zone96: cellZoneVol = 0.0002416992\ nFaces = 20\ area = 0.02625\ projected area = 0.007341696\ proj Dir = (-0.545133 -0.2696353 -0.7938052)\
zoneName = zone97: cellZoneVol = 0.0003383789\ nFaces = 24\ area = 0.031875\ projected area = 0.008873944\ proj Dir = (-0.6611123 -0.3768631 -0.6487717)\
zoneName = zone98: cellZoneVol = 0.0003383789\ nFaces = 26\ area = 0.03445312\ projected area = 0.009783477\ proj Dir = (-0.3860452 -0.4894625 -0.7819179)\
zoneName = zone99: cellZoneVol = 0.0002900391\ nFaces = 22\ area = 0.02882812\ projected area = 0.008772804\ proj Dir = (-0.1988373 -0.4460406 -0.8726462)\
zoneName = zone100: cellZoneVol = 0.0003383789\ nFaces = 26\ area = 0.03445312\ projected area = 0.009397044\ proj Dir = (-0.2603808 -0.4579655 -0.849982)\
zoneName = zone101: cellZoneVol = 0.0003383789\ nFaces = 28\ area = 0.03703125\ projected area = 0.01046918\ proj Dir = (-0.2349933 -0.4981269 -0.8346543)\
zoneName = zone102: cellZoneVol = 0.0002900391\ nFaces = 24\ area = 0.03164062\ projected area = 0.009243556\ proj Dir = (-0.1320744 -0.4798023 -0.8673789)\
zoneName = zone103: cellZoneVol = 0.0002416992\ nFaces = 20\ area = 0.02648437\ projected area = 0.007874885\ proj Dir = (-0.08704901 -0.478674 -0.8736668)\
zoneName = zone104: cellZoneVol = 0.0002900391\ nFaces = 22\ area = 0.0290625\ projected area = 0.008929383\ proj Dir = (-0.05079651 -0.4858581 -0.8725604)\
zoneName = zone105: cellZoneVol = 0.0001933594\ nFaces = 16\ area = 0.02109375\ projected area = 0.005879187\ proj Dir = (-0.002300227 -0.4850689 -0.8744729)\
zoneName = zone106: cellZoneVol = 0.0002416992\ nFaces = 20\ area = 0.02648437\ projected area = 0.007799589\ proj Dir = (0.04860437 -0.4856022 -0.8728277)\
zoneName = zone107: cellZoneVol = 0.0002900391\ nFaces = 24\ area = 0.03164062\ projected area = 0.009185103\ proj Dir = (0.1113073 -0.4870933 -0.8662279)\
zoneName = zone108: cellZoneVol = 0.0002900391\ nFaces = 24\ area = 0.03164062\ projected area = 0.009283994\ proj Dir = (0.1475259 -0.4670401 -0.8718427)\
zoneName = zone109: cellZoneVol = 0.0002900391\ nFaces = 24\ area = 0.031875\ projected area = 0.008742995\ proj Dir = (0.1282761 -0.4584713 -0.8794028)\
zoneName = zone110: cellZoneVol = 0.0004350586\ nFaces = 30\ area = 0.03960937\ projected area = 0.01065322\ proj Dir = (0.2046537 -0.5140307 -0.8330002)\
zoneName = zone111: cellZoneVol = 0.0003867187\ nFaces = 28\ area = 0.03703125\ projected area = 0.01050617\ proj Dir = (0.4528947 -0.5145156 -0.7281209)\
zoneName = zone112: cellZoneVol = 0.0002900391\ nFaces = 24\ area = 0.03164062\ projected area = 0.009227737\ proj Dir = (0.5301796 -0.3858112 -0.7550227)\
zoneName = zone113: cellZoneVol = 0.0002900391\ nFaces = 22\ area = 0.0290625\ projected area = 0.009132993\ proj Dir = (0.293153 -0.3678619 -0.8824619)\
zoneName = zone114: cellZoneVol = 0.0003383789\ nFaces = 26\ area = 0.03445312\ projected area = 0.009086598\ proj Dir = (0.1699253 -0.4626158 -0.8701219)\
zoneName = zone115: cellZoneVol = 0.0003867187\ nFaces = 28\ area = 0.03703125\ projected area = 0.01085996\ proj Dir = (0.4582198 -0.5422443 -0.7042768)\
zoneName = zone116: cellZoneVol = 0.0002416992\ nFaces = 20\ area = 0.02625\ projected area = 0.007990377\ proj Dir = (0.8454943 -0.355196 -0.3987168)\
zoneName = zone117: cellZoneVol = 0.0002900391\ nFaces = 22\ area = 0.02882812\ projected area = 0.008391789\ proj Dir = (0.9840634 -0.03903766 -0.1734801)\
zoneName = zone118: cellZoneVol = 0.0002416992\ nFaces = 20\ area = 0.02625\ projected area = 0.007562178\ proj Dir = (0.9181239 0.04306349 -0.3939468)\
zoneName = zone119: cellZoneVol = 0.0002900391\ nFaces = 22\ area = 0.0290625\ projected area = 0.007744187\ proj Dir = (0.7090328 -0.1196872 -0.6949442)\
zoneName = zone120: cellZoneVol = 0.0002416992\ nFaces = 20\ area = 0.02625\ projected area = 0.007610073\ proj Dir = (0.1996095 -0.4996212 -0.8429322)\
zoneName = zone121: cellZoneVol = 0.0002900391\ nFaces = 24\ area = 0.03164063\ projected area = 0.008773224\ proj Dir = (0.3008056 -0.3673111 -0.8801128)\
zoneName = zone122: cellZoneVol = 0.0002900391\ nFaces = 22\ area = 0.02882813\ projected area = 0.008642343\ proj Dir = (0.9326026 -0.01221582 -0.3606982)\
zoneName = zone123: cellZoneVol = 0.0002416992\ nFaces = 20\ area = 0.02625\ projected area = 0.007872108\ proj Dir = (0.6103848 0.4185174 0.6725129)\
zoneName = zone124: cellZoneVol = 0.0002416992\ nFaces = 20\ area = 0.02625\ projected area = 0.008006286\ proj Dir = (0.4452455 0.4086386 0.7967251)\
zoneName = zone125: cellZoneVol = 0.0002900391\ nFaces = 22\ area = 0.02882812\ projected area = 0.008837349\ proj Dir = (0.9276757 0.3146554 -0.201022)\
zoneName = zone126: cellZoneVol = 0.0001933594\ nFaces = 16\ area = 0.02109375\ projected area = 0.006200874\ proj Dir = (0.8666171 0.1949 -0.4593351)\
zoneName = zone127: cellZoneVol = 0.0003867187\ nFaces = 28\ area = 0.03703125\ projected area = 0.008354072\ proj Dir = (0.9204206 0.3892683 0.03600119)\
zoneName = zone128: cellZoneVol = 0.0002416992\ nFaces = 20\ area = 0.02625\ projected area = 0.007861468\ proj Dir = (0.6019226 0.4392608 0.6668876)\
zoneName = zone129: cellZoneVol = 0.0001933594\ nFaces = 16\ area = 0.02109375\ projected area = 0.005805045\ proj Dir = (0.03603432 0.263854 0.9638893)\
zoneName = zone130: cellZoneVol = 0.0002416992\ nFaces = 20\ area = 0.02625\ projected area = 0.007102419\ proj Dir = (-0.06116013 0.200419 0.9777994)\
zoneName = zone131: cellZoneVol = 0.0001933594\ nFaces = 16\ area = 0.02109375\ projected area = 0.006307994\ proj Dir = (0.2455041 0.3939196 0.8857511)\
zoneName = zone132: cellZoneVol = 0.0001933594\ nFaces = 16\ area = 0.02109375\ projected area = 0.006356702\ proj Dir = (0.27661 0.4469568 0.8507153)\
zoneName = zone133: cellZoneVol = 0.0001450195\ nFaces = 14\ area = 0.01851562\ projected area = 0.004909838\ proj Dir = (0.11061 0.383734 0.9167953)\
zoneName = zone134: cellZoneVol = 0.0002900391\ nFaces = 22\ area = 0.0290625\ projected area = 0.008788822\ proj Dir = (0.02731952 0.3498006 0.9364257)\
zoneName = zone135: cellZoneVol = 0.0001933594\ nFaces = 16\ area = 0.02109375\ projected area = 0.005816259\ proj Dir = (0.0003300732 0.3510395 0.9363606)\
zoneName = zone136: cellZoneVol = 0.0001450195\ nFaces = 14\ area = 0.01851562\ projected area = 0.004721882\ proj Dir = (-0.04040579 0.3605274 0.9318731)\
zoneName = zone137: cellZoneVol = 0.0001933594\ nFaces = 16\ area = 0.02109375\ projected area = 0.006182345\ proj Dir = (-0.1531076 0.4063779 0.9007858)\
zoneName = zone138: cellZoneVol = 0.0001933594\ nFaces = 16\ area = 0.02109375\ projected area = 0.006326641\ proj Dir = (-0.251158 0.4238835 0.8701968)\
zoneName = zone139: cellZoneVol = 0.0002416992\ nFaces = 20\ area = 0.02625\ projected area = 0.00738362\ proj Dir = (-0.1110504 0.3050272 0.9458468)\
zoneName = zone140: cellZoneVol = 0.0001933594\ nFaces = 16\ area = 0.02109375\ projected area = 0.005745107\ proj Dir = (0.05002513 0.2046696 0.977552)\
zoneName = zone141: cellZoneVol = 0.0001933594\ nFaces = 18\ area = 0.02367187\ projected area = 0.006349299\ proj Dir = (-0.1681352 0.3120453 0.9350713)\
zoneName = zone142: cellZoneVol = 0.0002900391\ nFaces = 24\ area = 0.03164062\ projected area = 0.008979903\ proj Dir = (-0.5287242 0.4176772 0.7389158)\
zoneName = zone143: cellZoneVol = 0.0003867187\ nFaces = 28\ area = 0.03703125\ projected area = 0.01059699\ proj Dir = (-0.6933126 0.4120847 0.5911885)\
zoneName = zone144: cellZoneVol = 0.0001933594\ nFaces = 16\ area = 0.02109375\ projected area = 0.006401501\ proj Dir = (-0.8138279 0.385396 0.4349185)\
zoneName = zone145: cellZoneVol = 0.0002416992\ nFaces = 20\ area = 0.02625\ projected area = 0.007000624\ proj Dir = (-0.963883 0.2661291 0.01024233)\
zoneName = zone146: cellZoneVol = 0.0002416992\ nFaces = 20\ area = 0.02625\ projected area = 0.006844552\ proj Dir = (-0.8264686 0.007159537 -0.5629373)\
zoneName = zone147: cellZoneVol = 0.0002900391\ nFaces = 24\ area = 0.03164062\ projected area = 0.008656908\ proj Dir = (-0.3330036 -0.2604807 -0.9062331)\
zoneName = zone148: cellZoneVol = 0.0003867187\ nFaces = 28\ area = 0.03703125\ projected area = 0.009359673\ proj Dir = (-0.3206676 -0.249523 -0.9137344)\
zoneName = zone149: cellZoneVol = 0.0002900391\ nFaces = 24\ area = 0.03164062\ projected area = 0.008482536\ proj Dir = (-0.8755633 0.0937816 -0.4739135)\
zoneName = zone150: cellZoneVol = 0.0003867188\ nFaces = 28\ area = 0.03703125\ projected area = 0.009792748\ proj Dir = (-0.8654986 0.3922449 0.3115382)\
zoneName = zone151: cellZoneVol = 0.0004833984\ nFaces = 32\ area = 0.0421875\ projected area = 0.01104466\ proj Dir = (-0.9057154 0.2772376 0.320654)\
zoneName = zone152: cellZoneVol = 0.0002900391\ nFaces = 26\ area = 0.03445313\ projected area = 0.008919162\ proj Dir = (-0.8252389 -0.2474083 -0.5077104)\
zoneName = zone153: cellZoneVol = 0.0003383789\ nFaces = 26\ area = 0.03421875\ projected area = 0.008416418\ proj Dir = (-0.1229673 -0.4806245 -0.8682621)\
zoneName = zone154: cellZoneVol = 0.0004350586\ nFaces = 30\ area = 0.03960937\ projected area = 0.00977426\ proj Dir = (0.06287106 -0.4221071 -0.9043632)\
zoneName = zone155: cellZoneVol = 0.0002900391\ nFaces = 22\ area = 0.02882812\ projected area = 0.008018709\ proj Dir = (-0.5303379 -0.3050237 -0.7910134)\
zoneName = zone156: cellZoneVol = 0.0003867188\ nFaces = 30\ area = 0.03984375\ projected area = 0.01045449\ proj Dir = (-0.8974126 -0.2187242 -0.3831584)\
zoneName = zone157: cellZoneVol = 0.0002416992\ nFaces = 20\ area = 0.02648438\ projected area = 0.007531186\ proj Dir = (-0.6676956 -0.432971 -0.605573)\
zoneName = zone158: cellZoneVol = 0.0003383789\ nFaces = 26\ area = 0.03421875\ projected area = 0.009286569\ proj Dir = (-0.1018138 -0.4981199 -0.8611101)\
zoneName = zone159: cellZoneVol = 0.0002900391\ nFaces = 22\ area = 0.02929688\ projected area = 0.007766121\ proj Dir = (-0.1840666 -0.4558502 -0.8708158)\
zoneName = zone160: cellZoneVol = 0.0002900391\ nFaces = 22\ area = 0.0290625\ projected area = 0.008164792\ proj Dir = (-0.407891 -0.5172352 -0.7523913)\
zoneName = zone161: cellZoneVol = 0.0002900391\ nFaces = 22\ area = 0.02929687\ projected area = 0.008119439\ proj Dir = (-0.2256588 -0.5533034 -0.8018313)\
zoneName = zone162: cellZoneVol = 0.0004350586\ nFaces = 30\ area = 0.03960937\ projected area = 0.009963158\ proj Dir = (-0.07731412 -0.4845337 -0.8713493)\
zoneName = zone163: cellZoneVol = 0.0002900391\ nFaces = 22\ area = 0.02929687\ projected area = 0.007759021\ proj Dir = (-0.1085922 -0.5391328 -0.8351907)\
zoneName = zone164: cellZoneVol = 0.0002900391\ nFaces = 22\ area = 0.02929687\ projected area = 0.007530446\ proj Dir = (-0.05617556 -0.5173675 -0.8539175)\
zoneName = zone165: cellZoneVol = 0.0001450195\ nFaces = 14\ area = 0.01851562\ projected area = 0.003691167\ proj Dir = (0.0009753761 -0.5389046 -0.8423663)\
zoneName = zone166: cellZoneVol = 0.0002900391\ nFaces = 22\ area = 0.02929687\ projected area = 0.007453458\ proj Dir = (0.03859299 -0.5118199 -0.8582255)\
zoneName = zone167: cellZoneVol = 0.0004350586\ nFaces = 30\ area = 0.03960937\ projected area = 0.01028168\ proj Dir = (0.1246115 -0.5452497 -0.82896)\
zoneName = zone168: cellZoneVol = 0.0002900391\ nFaces = 22\ area = 0.02929687\ projected area = 0.007990744\ proj Dir = (0.209578 -0.5140326 -0.8317737)\
zoneName = zone169: cellZoneVol = 0.0003383789\ nFaces = 26\ area = 0.03445313\ projected area = 0.008911971\ proj Dir = (0.1202787 -0.4756429 -0.8713764)\
zoneName = zone170: cellZoneVol = 0.0002900391\ nFaces = 24\ area = 0.03164063\ projected area = 0.007708676\ proj Dir = (0.004158833 -0.4927211 -0.8701774)\
zoneName = zone171: cellZoneVol = 0.0002900391\ nFaces = 22\ area = 0.02929688\ projected area = 0.008427695\ proj Dir = (0.3643292 -0.5796058 -0.7289179)\
zoneName = zone172: cellZoneVol = 0.0002416992\ nFaces = 20\ area = 0.02648437\ projected area = 0.00794932\ proj Dir = (0.7637647 -0.4155813 -0.4939187)\
zoneName = zone173: cellZoneVol = 0.0003383789\ nFaces = 24\ area = 0.031875\ projected area = 0.00877478\ proj Dir = (0.6261236 -0.3450715 -0.6992102)\
zoneName = zone174: cellZoneVol = 0.0002900391\ nFaces = 24\ area = 0.03164062\ projected area = 0.008039558\ proj Dir = (0.08447121 -0.4269125 -0.900339)\
zoneName = zone175: cellZoneVol = 0.0002900391\ nFaces = 26\ area = 0.03445313\ projected area = 0.008737042\ proj Dir = (-0.06833985 -0.5041501 -0.8609078)\
zoneName = zone176: cellZoneVol = 0.0003383789\ nFaces = 24\ area = 0.031875\ projected area = 0.008987211\ proj Dir = (0.4489898 -0.5201865 -0.7265082)\
zoneName = zone177: cellZoneVol = 0.0002416992\ nFaces = 20\ area = 0.02625\ projected area = 0.007427789\ proj Dir = (0.9683015 -0.1687719 -0.1841421)\
zoneName = zone178: cellZoneVol = 0.0002900391\ nFaces = 22\ area = 0.02882813\ projected area = 0.008697369\ proj Dir = (0.9666371 0.1665255 0.1946329)\
zoneName = zone179: cellZoneVol = 0.0002416992\ nFaces = 22\ area = 0.0290625\ projected area = 0.007308134\ proj Dir = (0.9847539 0.09313774 -0.1469188)\
zoneName = zone180: cellZoneVol = 0.0003383789\ nFaces = 26\ area = 0.03421875\ projected area = 0.00944844\ proj Dir = (0.8541928 -0.2037961 -0.4783532)\
zoneName = zone181: cellZoneVol = 0.0003383789\ nFaces = 26\ area = 0.0346875\ projected area = 0.009193147\ proj Dir = (0.2435319 -0.3413365 -0.9078445)\
zoneName = zone182: cellZoneVol = 0.0002416992\ nFaces = 20\ area = 0.02648438\ projected area = 0.007192912\ proj Dir = (0.3615401 -0.2909228 -0.8858062)\
zoneName = zone183: cellZoneVol = 0.0003867188\ nFaces = 28\ area = 0.03703125\ projected area = 0.008430044\ proj Dir = (0.9662786 0.1642054 -0.1983489)\
zoneName = zone184: cellZoneVol = 0.0004350586\ nFaces = 32\ area = 0.04242188\ projected area = 0.01183996\ proj Dir = (0.4539612 0.3826162 0.8046888)\
zoneName = zone185: cellZoneVol = 0.0003867188\ nFaces = 28\ area = 0.03703125\ projected area = 0.01044202\ proj Dir = (0.4818894 0.4282821 0.7644325)\
zoneName = zone186: cellZoneVol = 0.0003383789\ nFaces = 26\ area = 0.03445312\ projected area = 0.008594291\ proj Dir = (0.9195001 0.3791405 -0.1037886)\
zoneName = zone187: cellZoneVol = 0.0002900391\ nFaces = 24\ area = 0.03164062\ projected area = 0.008954762\ proj Dir = (0.8446406 0.2607558 -0.4675346)\
zoneName = zone188: cellZoneVol = 0.0002900391\ nFaces = 22\ area = 0.02929687\ projected area = 0.007437567\ proj Dir = (0.8883252 0.451932 -0.08146048)\
zoneName = zone189: cellZoneVol = 0.0002900391\ nFaces = 22\ area = 0.0290625\ projected area = 0.008408172\ proj Dir = (0.6010059 0.5517793 0.5782141)\
zoneName = zone190: cellZoneVol = 0.0001933594\ nFaces = 18\ area = 0.02367187\ projected area = 0.006201674\ proj Dir = (0.107712 0.3531015 0.929364)\
zoneName = zone191: cellZoneVol = 0.0001933594\ nFaces = 16\ area = 0.02109375\ projected area = 0.005835957\ proj Dir = (0.02591374 0.3072422 0.9512784)\
zoneName = zone192: cellZoneVol = 0.0001933594\ nFaces = 16\ area = 0.02109375\ projected area = 0.006262136\ proj Dir = (0.1942177 0.4632387 0.8646903)\
zoneName = zone193: cellZoneVol = 0.0001933594\ nFaces = 16\ area = 0.02109375\ projected area = 0.006239249\ proj Dir = (0.1819066 0.5069125 0.8425851)\
zoneName = zone194: cellZoneVol = 0.0002416992\ nFaces = 20\ area = 0.02648437\ projected area = 0.007845425\ proj Dir = (0.07086535 0.4829016 0.8728025)\
zoneName = zone195: cellZoneVol = 0.0001450195\ nFaces = 14\ area = 0.01851562\ projected area = 0.004751387\ proj Dir = (-0.005353915 0.4731369 0.8809726)\
zoneName = zone196: cellZoneVol = 0.0001933594\ nFaces = 16\ area = 0.02109375\ projected area = 0.006069375\ proj Dir = (-0.08414988 0.4836447 0.8712099)\
zoneName = zone197: cellZoneVol = 0.0001933594\ nFaces = 16\ area = 0.02109375\ projected area = 0.00620922\ proj Dir = (-0.1596478 0.483599 0.8606071)\
zoneName = zone198: cellZoneVol = 0.0001933594\ nFaces = 16\ area = 0.02109375\ projected area = 0.006101491\ proj Dir = (-0.1114877 0.3970729 0.9109905)\
zoneName = zone199: cellZoneVol = 0.0002416992\ nFaces = 22\ area = 0.0290625\ projected area = 0.006466898\ proj Dir = (-0.044948 0.3222337 0.9455925)\
zoneName = zone200: cellZoneVol = 0.0003383789\ nFaces = 24\ area = 0.031875\ projected area = 0.008200718\ proj Dir = (-0.2415311 0.4469398 0.8613406)\
zoneName = zone201: cellZoneVol = 0.0003383789\ nFaces = 24\ area = 0.031875\ projected area = 0.009183426\ proj Dir = (-0.5622815 0.5563888 0.6117769)\
zoneName = zone202: cellZoneVol = 0.0003383789\ nFaces = 24\ area = 0.031875\ projected area = 0.009012899\ proj Dir = (-0.7157096 0.5379071 0.4454388)\
zoneName = zone203: cellZoneVol = 0.0003383789\ nFaces = 26\ area = 0.03445313\ projected area = 0.009736494\ proj Dir = (-0.7939461 0.4844495 0.3673667)\
zoneName = zone204: cellZoneVol = 0.0004350586\ nFaces = 30\ area = 0.039375\ projected area = 0.008878338\ proj Dir = (-0.9340691 0.3565679 -0.01934558)\
zoneName = zone205: cellZoneVol = 0.0003867188\ nFaces = 28\ area = 0.03703125\ projected area = 0.009349373\ proj Dir = (-0.7972982 0.06040326 -0.6005556)\
zoneName = zone206: cellZoneVol = 0.0002900391\ nFaces = 22\ area = 0.0290625\ projected area = 0.007430911\ proj Dir = (-0.3420133 -0.2297143 -0.9111851)\
zoneName = zone207: cellZoneVol = 0.0002416992\ nFaces = 20\ area = 0.02625\ projected area = 0.006524213\ proj Dir = (-0.3727792 -0.2290131 -0.8992156)\
zoneName = zone208: cellZoneVol = 0.0004350586\ nFaces = 30\ area = 0.03960938\ projected area = 0.01018858\ proj Dir = (-0.9092244 0.09731831 -0.4047716)\
zoneName = zone209: cellZoneVol = 0.0002900391\ nFaces = 24\ area = 0.03164063\ projected area = 0.009093683\ proj Dir = (-0.8171582 0.4008817 0.4141816)\
zoneName = zone210: cellZoneVol = 0.0003867188\ nFaces = 30\ area = 0.03960938\ projected area = 0.01125205\ proj Dir = (-0.7117748 0.3386151 0.6153994)\
zoneName = zone211: cellZoneVol = 0.0003383789\ nFaces = 28\ area = 0.03703125\ projected area = 0.007915174\ proj Dir = (-0.972739 -0.02889396 -0.2300958)\
zoneName = zone212: cellZoneVol = 0.0004350586\ nFaces = 30\ area = 0.03960938\ projected area = 0.01081216\ proj Dir = (-0.2718495 -0.4203681 -0.8656723)\
zoneName = zone213: cellZoneVol = 0.0004350586\ nFaces = 30\ area = 0.03960938\ projected area = 0.01058519\ proj Dir = (0.2191081 -0.4194764 -0.8809263)\
zoneName = zone214: cellZoneVol = 0.0002900391\ nFaces = 24\ area = 0.03164063\ projected area = 0.008375146\ proj Dir = (-0.3676447 -0.3939223 -0.8424147)\
zoneName = zone215: cellZoneVol = 0.0002900391\ nFaces = 22\ area = 0.02882813\ projected area = 0.008819941\ proj Dir = (-0.9502769 -0.1408031 -0.2777559)\
zoneName = zone216: cellZoneVol = 0.0002900391\ nFaces = 24\ area = 0.03164063\ projected area = 0.00740529\ proj Dir = (-0.9386714 -0.2572112 -0.2296485)\
zoneName = zone217: cellZoneVol = 0.0002900391\ nFaces = 22\ area = 0.02929688\ projected area = 0.008185228\ proj Dir = (-0.2720114 -0.5348291 -0.7999798)\
zoneName = zone218: cellZoneVol = 0.0002900391\ nFaces = 26\ area = 0.03445313\ projected area = 0.008615251\ proj Dir = (0.06092319 -0.4618453 -0.8848657)\
zoneName = zone219: cellZoneVol = 0.0003867188\ nFaces = 28\ area = 0.03703125\ projected area = 0.01046136\ proj Dir = (-0.4549976 -0.4763515 -0.7523738)\
zoneName = zone220: cellZoneVol = 0.0003383789\ nFaces = 24\ area = 0.031875\ projected area = 0.009171035\ proj Dir = (-0.5211678 -0.5722853 -0.6331458)\
zoneName = zone221: cellZoneVol = 0.0003383789\ nFaces = 24\ area = 0.031875\ projected area = 0.007705104\ proj Dir = (-0.05197138 -0.5713539 -0.8190566)\
zoneName = zone222: cellZoneVol = 0.0003867188\ nFaces = 28\ area = 0.03703125\ projected area = 0.008808661\ proj Dir = (-0.069094 -0.4931553 -0.8671931)\
zoneName = zone223: cellZoneVol = 0.0003867188\ nFaces = 28\ area = 0.03703125\ projected area = 0.01028643\ proj Dir = (-0.1696559 -0.621083 -0.7651619)\
zoneName = zone224: cellZoneVol = 0.0003383789\ nFaces = 26\ area = 0.03445313\ projected area = 0.0086352\ proj Dir = (-0.04205527 -0.5168826 -0.8550226)\
zoneName = zone225: cellZoneVol = 0.0001933594\ nFaces = 18\ area = 0.02367188\ projected area = 0.004822126\ proj Dir = (0.008439263 -0.616357 -0.7874216)\
zoneName = zone226: cellZoneVol = 0.0003867188\ nFaces = 28\ area = 0.03703125\ projected area = 0.009652644\ proj Dir = (0.02572829 -0.5112609 -0.8590404)\
zoneName = zone227: cellZoneVol = 0.0003383789\ nFaces = 26\ area = 0.03445312\ projected area = 0.00899912\ proj Dir = (0.09596719 -0.6157026 -0.7821129)\
zoneName = zone228: cellZoneVol = 0.0003383789\ nFaces = 24\ area = 0.031875\ projected area = 0.008615285\ proj Dir = (0.2881962 -0.5468965 -0.7860326)\
zoneName = zone229: cellZoneVol = 0.0004350586\ nFaces = 30\ area = 0.03960938\ projected area = 0.01089586\ proj Dir = (0.2588655 -0.5308866 -0.8069375)\
zoneName = zone230: cellZoneVol = 0.0003383789\ nFaces = 24\ area = 0.031875\ projected area = 0.007741194\ proj Dir = (-0.1216902 -0.4569717 -0.8811177)\
zoneName = zone231: cellZoneVol = 0.0001933594\ nFaces = 16\ area = 0.02109375\ projected area = 0.005851551\ proj Dir = (0.007534734 -0.5791942 -0.8151548)\
zoneName = zone232: cellZoneVol = 0.0002900391\ nFaces = 22\ area = 0.02882813\ projected area = 0.008885161\ proj Dir = (0.7409683 -0.4897782 -0.4594379)\
zoneName = zone233: cellZoneVol = 0.0003383789\ nFaces = 26\ area = 0.03421875\ projected area = 0.008860142\ proj Dir = (0.9207274 -0.2828691 -0.2687864)\
zoneName = zone234: cellZoneVol = 0.0003383789\ nFaces = 26\ area = 0.03445312\ projected area = 0.009560692\ proj Dir = (0.5291675 -0.4148158 -0.7402091)\
zoneName = zone235: cellZoneVol = 0.0004350586\ nFaces = 30\ area = 0.03960937\ projected area = 0.0102757\ proj Dir = (-0.1418561 -0.456599 -0.8782905)\
zoneName = zone236: cellZoneVol = 0.0002900391\ nFaces = 22\ area = 0.02929688\ projected area = 0.00765261\ proj Dir = (-0.1052172 -0.5003245 -0.8594212)\
zoneName = zone237: cellZoneVol = 0.0002416992\ nFaces = 20\ area = 0.02625\ projected area = 0.007792954\ proj Dir = (0.6398571 -0.4161253 -0.6460825)\
zoneName = zone238: cellZoneVol = 0.0001933594\ nFaces = 16\ area = 0.02109375\ projected area = 0.005512492\ proj Dir = (0.9928482 0.03520791 0.1140736)\
zoneName = zone239: cellZoneVol = 0.0001933594\ nFaces = 16\ area = 0.02109375\ projected area = 0.006250748\ proj Dir = (0.8973213 0.2348047 0.3737396)\
zoneName = zone240: cellZoneVol = 0.0003867188\ nFaces = 28\ area = 0.03703125\ projected area = 0.008373873\ proj Dir = (0.9678332 0.1875331 0.1677205)\
zoneName = zone241: cellZoneVol = 0.0004350586\ nFaces = 30\ area = 0.039375\ projected area = 0.01112808\ proj Dir = (0.8213968 -0.1036207 -0.5608655)\
zoneName = zone242: cellZoneVol = 0.0003867188\ nFaces = 28\ area = 0.03703125\ projected area = 0.009240828\ proj Dir = (0.2327846 -0.3263351 -0.9161423)\
zoneName = zone243: cellZoneVol = 0.0003383789\ nFaces = 26\ area = 0.03421875\ projected area = 0.009581174\ proj Dir = (0.5709562 -0.1725336 -0.8026463)\
zoneName = zone244: cellZoneVol = 0.0002900391\ nFaces = 24\ area = 0.03164063\ projected area = 0.007616742\ proj Dir = (0.9543217 0.2957732 0.04228793)\
zoneName = zone245: cellZoneVol = 0.0001933594\ nFaces = 16\ area = 0.02109375\ projected area = 0.006402969\ proj Dir = (0.3983465 0.3861114 0.8320084)\
zoneName = zone246: cellZoneVol = 0.0002900391\ nFaces = 22\ area = 0.0290625\ projected area = 0.008335143\ proj Dir = (0.5205526 0.4615449 0.7183323)\
zoneName = zone247: cellZoneVol = 0.0002416992\ nFaces = 20\ area = 0.02648437\ projected area = 0.006562207\ proj Dir = (0.9040791 0.4265668 -0.02610945)\
zoneName = zone248: cellZoneVol = 0.0003383789\ nFaces = 24\ area = 0.031875\ projected area = 0.008349117\ proj Dir = (0.8546091 0.3457706 -0.3874093)\
zoneName = zone249: cellZoneVol = 0.0003867188\ nFaces = 30\ area = 0.03984375\ projected area = 0.01045781\ proj Dir = (0.8385248 0.5441223 -0.02840999)\
zoneName = zone250: cellZoneVol = 0.0003383789\ nFaces = 24\ area = 0.031875\ projected area = 0.009204007\ proj Dir = (0.5358386 0.6351997 0.5562358)\
zoneName = zone251: cellZoneVol = 0.0002900391\ nFaces = 22\ area = 0.02929687\ projected area = 0.007829021\ proj Dir = (0.1716908 0.4907634 0.8542093)\
zoneName = zone252: cellZoneVol = 0.0002900391\ nFaces = 22\ area = 0.02929687\ projected area = 0.007546395\ proj Dir = (0.09855578 0.469554 0.8773858)\
zoneName = zone253: cellZoneVol = 0.0003383789\ nFaces = 24\ area = 0.031875\ projected area = 0.008036849\ proj Dir = (0.1345252 0.5497105 0.8244522)\
zoneName = zone254: cellZoneVol = 0.0003867187\ nFaces = 28\ area = 0.0375\ projected area = 0.01042641\ proj Dir = (0.08625442 0.5743354 0.8140633)\
zoneName = zone255: cellZoneVol = 0.0002900391\ nFaces = 22\ area = 0.02929687\ projected area = 0.007453072\ proj Dir = (-0.001210507 0.5727217 0.819749)\
zoneName = zone256: cellZoneVol = 0.0003383789\ nFaces = 24\ area = 0.031875\ projected area = 0.007811648\ proj Dir = (-0.07632875 0.5668457 0.8202804)\
zoneName = zone257: cellZoneVol = 0.0002900391\ nFaces = 22\ area = 0.02929687\ projected area = 0.007733921\ proj Dir = (-0.1053465 0.532816 0.8396483)\
zoneName = zone258: cellZoneVol = 0.0002900391\ nFaces = 22\ area = 0.02929687\ projected area = 0.007716324\ proj Dir = (-0.124402 0.5013808 0.8562368)\
zoneName = zone259: cellZoneVol = 0.0003383789\ nFaces = 24\ area = 0.031875\ projected area = 0.008645277\ proj Dir = (-0.2767139 0.5831456 0.763787)\
zoneName = zone260: cellZoneVol = 0.0001933594\ nFaces = 18\ area = 0.02390625\ projected area = 0.006895489\ proj Dir = (-0.5264909 0.6548059 0.5422514)\
zoneName = zone261: cellZoneVol = 0.0003867188\ nFaces = 28\ area = 0.03703125\ projected area = 0.01038921\ proj Dir = (-0.6685931 0.6321644 0.3916013)\
zoneName = zone262: cellZoneVol = 0.0003867188\ nFaces = 28\ area = 0.03703125\ projected area = 0.01080388\ proj Dir = (-0.7292906 0.5673249 0.3824627)\
zoneName = zone263: cellZoneVol = 0.0001933594\ nFaces = 18\ area = 0.02367187\ projected area = 0.006169778\ proj Dir = (-0.8865293 0.4553032 0.08224863)\
zoneName = zone264: cellZoneVol = 0.0001450195\ nFaces = 14\ area = 0.01851562\ projected area = 0.004611739\ proj Dir = (-0.840998 0.156824 -0.5178113)\
zoneName = zone265: cellZoneVol = 0.0002416992\ nFaces = 20\ area = 0.02625\ projected area = 0.007871927\ proj Dir = (-0.4423392 -0.174856 -0.8796371)\
zoneName = zone266: cellZoneVol = 0.0003867188\ nFaces = 28\ area = 0.03703125\ projected area = 0.009665501\ proj Dir = (-0.4539909 -0.2043943 -0.8672458)\
zoneName = zone267: cellZoneVol = 0.0001933594\ nFaces = 16\ area = 0.02109375\ projected area = 0.006004645\ proj Dir = (-0.9142594 0.09865274 -0.3929344)\
zoneName = zone268: cellZoneVol = 0.0003867188\ nFaces = 28\ area = 0.03703125\ projected area = 0.0101232\ proj Dir = (-0.8276401 0.3986898 0.3950421)\
zoneName = zone269: cellZoneVol = 0.0002416992\ nFaces = 20\ area = 0.02625\ projected area = 0.007563568\ proj Dir = (-0.5702012 0.3839519 0.7262586)\
zoneName = zone270: cellZoneVol = 0.0001933594\ nFaces = 16\ area = 0.02109375\ projected area = 0.005924385\ proj Dir = (-0.9703583 0.1700241 0.1717457)\
zoneName = zone271: cellZoneVol = 0.0003383789\ nFaces = 24\ area = 0.031875\ projected area = 0.008612306\ proj Dir = (-0.5960713 -0.3031212 -0.7435163)\
zoneName = zone272: cellZoneVol = 0.0002416992\ nFaces = 20\ area = 0.02625\ projected area = 0.007643746\ proj Dir = (0.1928727 -0.4156051 -0.8888603)\
zoneName = zone273: cellZoneVol = 0.0002416992\ nFaces = 22\ area = 0.0290625\ projected area = 0.00715967\ proj Dir = (-0.1396595 -0.4456934 -0.8842243)\
zoneName = zone274: cellZoneVol = 0.0002900391\ nFaces = 22\ area = 0.02882813\ projected area = 0.009010648\ proj Dir = (-0.8992607 -0.1873123 -0.3952776)\
zoneName = zone275: cellZoneVol = 0.0001933594\ nFaces = 16\ area = 0.02109375\ projected area = 0.005606263\ proj Dir = (-0.9914664 -0.08521831 0.09865245)\
zoneName = zone276: cellZoneVol = 0.0003867188\ nFaces = 28\ area = 0.03703125\ projected area = 0.01041202\ proj Dir = (-0.705411 -0.4360246 -0.5588183)\
zoneName = zone277: cellZoneVol = 0.0002900391\ nFaces = 22\ area = 0.02929688\ projected area = 0.007589582\ proj Dir = (0.1155087 -0.4654846 -0.8774861)\
zoneName = zone278: cellZoneVol = 0.0003867188\ nFaces = 28\ area = 0.03703125\ projected area = 0.009391444\ proj Dir = (-0.1624965 -0.5290363 -0.8328958)\
zoneName = zone279: cellZoneVol = 0.0002416992\ nFaces = 20\ area = 0.02625\ projected area = 0.007930678\ proj Dir = (-0.739161 -0.4889181 -0.4632495)\
zoneName = zone280: cellZoneVol = 0.0002900391\ nFaces = 22\ area = 0.02929688\ projected area = 0.008527489\ proj Dir = (-0.4145103 -0.6225584 -0.6637788)\
zoneName = zone281: cellZoneVol = 0.0001933594\ nFaces = 16\ area = 0.02109375\ projected area = 0.006206283\ proj Dir = (0.1621667 -0.5159004 -0.8411592)\
zoneName = zone282: cellZoneVol = 0.0003867188\ nFaces = 28\ area = 0.03703125\ projected area = 0.009698618\ proj Dir = (-0.2207113 -0.5427275 -0.8103909)\
zoneName = zone283: cellZoneVol = 0.0003383789\ nFaces = 26\ area = 0.03421875\ projected area = 0.008620514\ proj Dir = (-0.1824321 -0.680629 -0.7095511)\
zoneName = zone284: cellZoneVol = 0.0003383789\ nFaces = 26\ area = 0.03421875\ projected area = 0.007859172\ proj Dir = (-0.02460244 -0.5400054 -0.8413019)\
zoneName = zone285: cellZoneVol = 0.0003383789\ nFaces = 26\ area = 0.03445313\ projected area = 0.007670128\ proj Dir = (0.01235244 -0.6645206 -0.7471679)\
zoneName = zone286: cellZoneVol = 0.0003383789\ nFaces = 26\ area = 0.03421875\ projected area = 0.007908463\ proj Dir = (0.03259576 -0.5354585 -0.8439323)\
zoneName = zone287: cellZoneVol = 0.0003867187\ nFaces = 28\ area = 0.03703125\ projected area = 0.008674363\ proj Dir = (0.01921888 -0.67584 -0.7367978)\
zoneName = zone288: cellZoneVol = 0.0002900391\ nFaces = 22\ area = 0.02929688\ projected area = 0.008311309\ proj Dir = (0.3125316 -0.5580685 -0.7686895)\
zoneName = zone289: cellZoneVol = 0.0002900391\ nFaces = 24\ area = 0.03164063\ projected area = 0.009083216\ proj Dir = (0.4249511 -0.6051216 -0.6732343)\
zoneName = zone290: cellZoneVol = 0.0002900391\ nFaces = 22\ area = 0.02929688\ projected area = 0.007396178\ proj Dir = (0.01964244 -0.5168327 -0.8558611)\
zoneName = zone291: cellZoneVol = 0.0003383789\ nFaces = 24\ area = 0.031875\ projected area = 0.008456948\ proj Dir = (-0.3100193 -0.4531165 -0.8358071)\
zoneName = zone292: cellZoneVol = 0.0002900391\ nFaces = 24\ area = 0.03164063\ projected area = 0.008662286\ proj Dir = (0.3951504 -0.6087626 -0.6879421)\
zoneName = zone293: cellZoneVol = 0.0002900391\ nFaces = 22\ area = 0.02882813\ projected area = 0.008469532\ proj Dir = (0.952941 -0.2950493 -0.06963799)\
zoneName = zone294: cellZoneVol = 0.0003867188\ nFaces = 28\ area = 0.03679687\ projected area = 0.009177991\ proj Dir = (0.927878 -0.2488973 -0.2776554)\
zoneName = zone295: cellZoneVol = 0.0002416992\ nFaces = 22\ area = 0.0290625\ projected area = 0.008535169\ proj Dir = (0.3235335 -0.4887385 -0.8102226)\
zoneName = zone296: cellZoneVol = 0.0003867188\ nFaces = 28\ area = 0.03726563\ projected area = 0.01004855\ proj Dir = (-0.2600872 -0.4603418 -0.8487874)\
zoneName = zone297: cellZoneVol = 0.0002900391\ nFaces = 22\ area = 0.02882813\ projected area = 0.008436876\ proj Dir = (0.0973388 -0.5009026 -0.8600126)\
zoneName = zone298: cellZoneVol = 0.0001933594\ nFaces = 18\ area = 0.02367188\ projected area = 0.006812738\ proj Dir = (0.8772578 -0.2536324 -0.4075406)\
zoneName = zone299: cellZoneVol = 0.0002900391\ nFaces = 22\ area = 0.02882813\ projected area = 0.00894237\ proj Dir = (0.9231138 0.1604497 0.3494521)\
zoneName = zone300: cellZoneVol = 0.0003867188\ nFaces = 28\ area = 0.03703125\ projected area = 0.01055979\ proj Dir = (0.7194981 0.4136412 0.5578741)\
zoneName = zone301: cellZoneVol = 0.0002416992\ nFaces = 20\ area = 0.02648438\ projected area = 0.007387047\ proj Dir = (0.9728833 0.2187717 0.07508057)\
zoneName = zone302: cellZoneVol = 0.0002416992\ nFaces = 22\ area = 0.0290625\ projected area = 0.007875573\ proj Dir = (0.7340792 -0.1642815 -0.6588925)\
zoneName = zone303: cellZoneVol = 0.0002900391\ nFaces = 22\ area = 0.02882813\ projected area = 0.009017379\ proj Dir = (0.3115526 -0.2847679 -0.9065552)\
zoneName = zone304: cellZoneVol = 0.0002900391\ nFaces = 24\ area = 0.03164063\ projected area = 0.008331755\ proj Dir = (0.7731499 -0.01891622 -0.6339412)\
zoneName = zone305: cellZoneVol = 0.0003383789\ nFaces = 24\ area = 0.031875\ projected area = 0.008063292\ proj Dir = (0.8850626 0.3918027 0.2513064)\
zoneName = zone306: cellZoneVol = 0.0003867187\ nFaces = 28\ area = 0.03703125\ projected area = 0.010114\ proj Dir = (0.3786448 0.4179525 0.8257989)\
zoneName = zone307: cellZoneVol = 0.0003867188\ nFaces = 28\ area = 0.03703125\ projected area = 0.01067932\ proj Dir = (0.5566343 0.504117 0.6603213)\
zoneName = zone308: cellZoneVol = 0.0002416992\ nFaces = 20\ area = 0.02625\ projected area = 0.007081658\ proj Dir = (0.8785422 0.4772505 0.01988825)\
zoneName = zone309: cellZoneVol = 0.0003383789\ nFaces = 26\ area = 0.03445313\ projected area = 0.00938067\ proj Dir = (0.8520359 0.4564589 -0.2562814)\
zoneName = zone310: cellZoneVol = 0.0003383789\ nFaces = 24\ area = 0.031875\ projected area = 0.008077678\ proj Dir = (0.7506899 0.6523863 0.104196)\
zoneName = zone311: cellZoneVol = 0.0002416992\ nFaces = 20\ area = 0.02671875\ projected area = 0.00782\ proj Dir = (0.4392365 0.7085108 0.5523438)\
zoneName = zone312: cellZoneVol = 0.0003383789\ nFaces = 24\ area = 0.031875\ projected area = 0.00840114\ proj Dir = (0.188141 0.6317309 0.75201)\
zoneName = zone313: cellZoneVol = 0.0002900391\ nFaces = 22\ area = 0.02929687\ projected area = 0.007929213\ proj Dir = (0.1115029 0.6240147 0.7734163)\
zoneName = zone314: cellZoneVol = 0.0004350586\ nFaces = 30\ area = 0.04007813\ projected area = 0.01161053\ proj Dir = (0.07050541 0.6506885 0.7560644)\
zoneName = zone315: cellZoneVol = 0.0002900391\ nFaces = 22\ area = 0.02929688\ projected area = 0.007591326\ proj Dir = (0.001465961 0.6595004 0.7517028)\
zoneName = zone316: cellZoneVol = 0.0002900391\ nFaces = 22\ area = 0.02929688\ projected area = 0.007826369\ proj Dir = (-0.06763606 0.6548778 0.7527021)\
zoneName = zone317: cellZoneVol = 0.0003383789\ nFaces = 24\ area = 0.031875\ projected area = 0.00820738\ proj Dir = (-0.1343007 0.6516818 0.746508)\
zoneName = zone318: cellZoneVol = 0.0002416992\ nFaces = 20\ area = 0.02671875\ projected area = 0.007492979\ proj Dir = (-0.2577773 0.6895716 0.6767879)\
zoneName = zone319: cellZoneVol = 0.0003867188\ nFaces = 28\ area = 0.03703125\ projected area = 0.0103333\ proj Dir = (-0.4500913 0.7267756 0.5188594)\
zoneName = zone320: cellZoneVol = 0.0003383789\ nFaces = 24\ area = 0.031875\ projected area = 0.009046085\ proj Dir = (-0.5885767 0.7034512 0.3984142)\
zoneName = zone321: cellZoneVol = 0.0002416992\ nFaces = 20\ area = 0.02648438\ projected area = 0.007640036\ proj Dir = (-0.6453031 0.6402124 0.4167877)\
zoneName = zone322: cellZoneVol = 0.0002900391\ nFaces = 22\ area = 0.02929688\ projected area = 0.00810964\ proj Dir = (-0.8047576 0.5492749 0.2250829)\
zoneName = zone323: cellZoneVol = 0.0004350586\ nFaces = 30\ area = 0.039375\ projected area = 0.01084188\ proj Dir = (-0.8892999 0.2874748 -0.3556738)\
zoneName = zone324: cellZoneVol = 0.0003867188\ nFaces = 28\ area = 0.03703125\ projected area = 0.009450894\ proj Dir = (-0.5807647 -0.08728661 -0.8093784)\
zoneName = zone325: cellZoneVol = 0.0001933594\ nFaces = 16\ area = 0.02109375\ projected area = 0.005371131\ proj Dir = (-0.5365683 -0.1679706 -0.8269706)\
zoneName = zone326: cellZoneVol = 0.0003383789\ nFaces = 26\ area = 0.03421875\ projected area = 0.00884059\ proj Dir = (-0.914666 0.0996623 -0.3917314)\
zoneName = zone327: cellZoneVol = 0.0001933594\ nFaces = 16\ area = 0.02109375\ projected area = 0.005103202\ proj Dir = (-0.8501516 0.3932536 0.3501341)\
zoneName = zone328: cellZoneVol = 0.0002416992\ nFaces = 20\ area = 0.02648438\ projected area = 0.007609217\ proj Dir = (-0.4874727 0.4237516 0.7634167)\
zoneName = zone329: cellZoneVol = 0.0002416992\ nFaces = 20\ area = 0.02625\ projected area = 0.008018539\ proj Dir = (-0.8102045 0.3122104 0.496078)\
zoneName = zone330: cellZoneVol = 0.0004350586\ nFaces = 28\ area = 0.03703125\ projected area = 0.009397283\ proj Dir = (-0.875973 -0.1369487 -0.4625108)\
zoneName = zone331: cellZoneVol = 0.0003383789\ nFaces = 26\ area = 0.03445313\ projected area = 0.00941408\ proj Dir = (-0.00928229 -0.4184992 -0.9081697)\
zoneName = zone332: cellZoneVol = 0.0003383789\ nFaces = 24\ area = 0.031875\ projected area = 0.007319854\ proj Dir = (0.03375177 -0.4543811 -0.8901677)\
zoneName = zone333: cellZoneVol = 0.0001933594\ nFaces = 16\ area = 0.02109375\ projected area = 0.006270059\ proj Dir = (-0.7801664 -0.2918274 -0.5533328)\
zoneName = zone334: cellZoneVol = 0.0002416992\ nFaces = 20\ area = 0.02625\ projected area = 0.007194904\ proj Dir = (-0.9775296 0.0314027 0.208446)\
zoneName = zone335: cellZoneVol = 0.0003383789\ nFaces = 24\ area = 0.031875\ projected area = 0.006656332\ proj Dir = (-0.9743944 -0.2045212 -0.09341648)\
zoneName = zone336: cellZoneVol = 0.0003383789\ nFaces = 28\ area = 0.03703125\ projected area = 0.009541155\ proj Dir = (-0.1868779 -0.5472858 -0.8158155)\
zoneName = zone337: cellZoneVol = 0.0002416992\ nFaces = 20\ area = 0.02648438\ projected area = 0.006980599\ proj Dir = (0.1232173 -0.4803797 -0.8683622)\
zoneName = zone338: cellZoneVol = 0.0003867188\ nFaces = 28\ area = 0.03726563\ projected area = 0.01061169\ proj Dir = (-0.6664526 -0.4798828 -0.570573)\
zoneName = zone339: cellZoneVol = 0.0001933594\ nFaces = 18\ area = 0.02390625\ projected area = 0.006456359\ proj Dir = (-0.7987703 -0.5185745 -0.3050352)\
zoneName = zone340: cellZoneVol = 0.0003383789\ nFaces = 26\ area = 0.0346875\ projected area = 0.008650873\ proj Dir = (-0.0306598 -0.6527876 -0.7569203)\
zoneName = zone341: cellZoneVol = 0.0002900391\ nFaces = 22\ area = 0.02929688\ projected area = 0.008007299\ proj Dir = (0.220386 -0.5096128 -0.8317)\
zoneName = zone342: cellZoneVol = 0.0003383789\ nFaces = 28\ area = 0.03703125\ projected area = 0.01052566\ proj Dir = (-0.4434195 -0.5901188 -0.6746399)\
zoneName = zone343: cellZoneVol = 0.0003383789\ nFaces = 28\ area = 0.03726563\ projected area = 0.009472543\ proj Dir = (-0.1408816 -0.7188733 -0.6807155)\
zoneName = zone344: cellZoneVol = 0.0002416992\ nFaces = 22\ area = 0.0290625\ projected area = 0.005705921\ proj Dir = (0.01196688 -0.6031679 -0.7975245)\
zoneName = zone345: cellZoneVol = 0.0003867188\ nFaces = 30\ area = 0.03984375\ projected area = 0.009612747\ proj Dir = (0.01742474 -0.6751817 -0.7374456)\
zoneName = zone346: cellZoneVol = 0.0003867188\ nFaces = 30\ area = 0.03984375\ projected area = 0.009488271\ proj Dir = (0.01743929 -0.6009565 -0.7990915)\
zoneName = zone347: cellZoneVol = 0.0002900391\ nFaces = 24\ area = 0.03164063\ projected area = 0.007620746\ proj Dir = (-0.01673657 -0.709289 -0.7047191)\
zoneName = zone348: cellZoneVol = 0.0002416992\ nFaces = 20\ area = 0.02648438\ projected area = 0.007451511\ proj Dir = (0.2679296 -0.5861176 -0.7646436)\
zoneName = zone349: cellZoneVol = 0.0004350586\ nFaces = 32\ area = 0.04242188\ projected area = 0.01208329\ proj Dir = (0.4814222 -0.6524763 -0.5852413)\
zoneName = zone350: cellZoneVol = 0.0002900391\ nFaces = 24\ area = 0.031875\ projected area = 0.009373682\ proj Dir = (0.3789993 -0.5756027 -0.7245972)\
zoneName = zone351: cellZoneVol = 0.0001933594\ nFaces = 18\ area = 0.02390625\ projected area = 0.006399506\ proj Dir = (-0.3618502 -0.4243314 -0.8300646)\
zoneName = zone352: cellZoneVol = 0.0002900391\ nFaces = 22\ area = 0.02929688\ projected area = 0.007826745\ proj Dir = (-0.1009117 -0.5831343 -0.8060838)\
zoneName = zone353: cellZoneVol = 0.0002900391\ nFaces = 22\ area = 0.02929688\ projected area = 0.008068278\ proj Dir = (0.8336241 -0.4595224 -0.3064475)\
zoneName = zone354: cellZoneVol = 0.0003867188\ nFaces = 28\ area = 0.03726563\ projected area = 0.007984057\ proj Dir = (0.9800206 -0.1219136 0.1571516)\
zoneName = zone355: cellZoneVol = 0.0003383789\ nFaces = 24\ area = 0.031875\ projected area = 0.008423345\ proj Dir = (0.8399572 -0.3393745 -0.4234345)\
zoneName = zone356: cellZoneVol = 0.0002416992\ nFaces = 20\ area = 0.02648437\ projected area = 0.006911619\ proj Dir = (0.08404759 -0.5296895 -0.8440172)\
zoneName = zone357: cellZoneVol = 0.0002900391\ nFaces = 24\ area = 0.031875\ projected area = 0.008195961\ proj Dir = (-0.2199398 -0.4737668 -0.8527435)\
zoneName = zone358: cellZoneVol = 0.0003383789\ nFaces = 26\ area = 0.03421875\ projected area = 0.00980427\ proj Dir = (0.4642067 -0.4429196 -0.7670295)\
zoneName = zone359: cellZoneVol = 0.0002900391\ nFaces = 22\ area = 0.02882813\ projected area = 0.008060528\ proj Dir = (0.9971835 -0.02809315 -0.06954022)\
zoneName = zone360: cellZoneVol = 0.0002416992\ nFaces = 22\ area = 0.0290625\ projected area = 0.008334536\ proj Dir = (0.7207655 0.4391766 0.5363031)\
zoneName = zone361: cellZoneVol = 0.0002900391\ nFaces = 24\ area = 0.03164063\ projected area = 0.00903212\ proj Dir = (0.7280723 0.3573237 0.5850048)\
zoneName = zone362: cellZoneVol = 0.0002900391\ nFaces = 22\ area = 0.02882813\ projected area = 0.008154072\ proj Dir = (0.9848917 0.1726699 -0.01316613)\
zoneName = zone363: cellZoneVol = 0.0001933594\ nFaces = 16\ area = 0.02109375\ projected area = 0.005868342\ proj Dir = (0.68649 -0.1828247 -0.7037802)\
zoneName = zone364: cellZoneVol = 0.0003383789\ nFaces = 24\ area = 0.031875\ projected area = 0.008001663\ proj Dir = (0.4487062 -0.2163706 -0.8670908)\
zoneName = zone365: cellZoneVol = 0.0004350586\ nFaces = 30\ area = 0.03960938\ projected area = 0.01043318\ proj Dir = (0.8954065 0.1388729 -0.4230384)\
zoneName = zone366: cellZoneVol = 0.0002416992\ nFaces = 22\ area = 0.0290625\ projected area = 0.008136346\ proj Dir = (0.781594 0.4646188 0.4162213)\
zoneName = zone367: cellZoneVol = 0.0002900391\ nFaces = 24\ area = 0.03164063\ projected area = 0.009614926\ proj Dir = (0.3714951 0.4593091 0.8068622)\
zoneName = zone368: cellZoneVol = 0.0002416992\ nFaces = 20\ area = 0.02648438\ projected area = 0.007656887\ proj Dir = (0.5853454 0.547504 0.5980052)\
zoneName = zone369: cellZoneVol = 0.0002900391\ nFaces = 22\ area = 0.02929688\ projected area = 0.007623312\ proj Dir = (0.83898 0.5399983 0.0671885)\
zoneName = zone370: cellZoneVol = 0.0002900391\ nFaces = 22\ area = 0.02929688\ projected area = 0.007757494\ proj Dir = (0.8071456 0.585074 -0.07876721)\
zoneName = zone371: cellZoneVol = 0.0002900391\ nFaces = 22\ area = 0.0290625\ projected area = 0.007627735\ proj Dir = (0.6146051 0.7469753 0.2535516)\
zoneName = zone372: cellZoneVol = 0.0001450195\ nFaces = 14\ area = 0.01851562\ projected area = 0.005129016\ proj Dir = (0.3317803 0.7698436 0.545218)\
zoneName = zone373: cellZoneVol = 9.667969e-05\ nFaces = 10\ area = 0.01335938\ projected area = 0.003969558\ proj Dir = (0.1564186 0.7384168 0.6559527)\
zoneName = zone374: cellZoneVol = 0.0002900391\ nFaces = 22\ area = 0.0290625\ projected area = 0.008496983\ proj Dir = (0.06965462 0.7350136 0.6744651)\
zoneName = zone375: cellZoneVol = 0.0001450195\ nFaces = 14\ area = 0.01851563\ projected area = 0.004693668\ proj Dir = (-0.00517395 0.7413376 0.6711123)\
zoneName = zone376: cellZoneVol = 9.667969e-05\ nFaces = 10\ area = 0.01335938\ projected area = 0.003914775\ proj Dir = (-0.0895258 0.7465874 0.6592362)\
zoneName = zone377: cellZoneVol = 0.0001450195\ nFaces = 14\ area = 0.01851563\ projected area = 0.005041201\ proj Dir = (-0.2000066 0.7617115 0.6162735)\
zoneName = zone378: cellZoneVol = 0.0003383789\ nFaces = 24\ area = 0.031875\ projected area = 0.008877589\ proj Dir = (-0.3524673 0.7769044 0.5217148)\
zoneName = zone379: cellZoneVol = 0.0002900391\ nFaces = 22\ area = 0.02929688\ projected area = 0.008454976\ proj Dir = (-0.4892129 0.7576443 0.4320254)\
zoneName = zone380: cellZoneVol = 0.0003383789\ nFaces = 26\ area = 0.03445313\ projected area = 0.009822128\ proj Dir = (-0.5560472 0.7039421 0.4419017)\
zoneName = zone381: cellZoneVol = 0.0002900391\ nFaces = 24\ area = 0.031875\ projected area = 0.008921599\ proj Dir = (-0.6932749 0.6303587 0.3493105)\
zoneName = zone382: cellZoneVol = 0.0002416992\ nFaces = 20\ area = 0.02625\ projected area = 0.007499161\ proj Dir = (-0.8885957 0.4365907 -0.1406638)\
zoneName = zone383: cellZoneVol = 0.0003383789\ nFaces = 24\ area = 0.031875\ projected area = 0.007530906\ proj Dir = (-0.7314144 0.04459724 -0.6804734)\
zoneName = zone384: cellZoneVol = 0.0003383789\ nFaces = 26\ area = 0.03445313\ projected area = 0.008639864\ proj Dir = (-0.6230039 -0.1125438 -0.7740801)\
zoneName = zone385: cellZoneVol = 0.0002900391\ nFaces = 22\ area = 0.02882813\ projected area = 0.008873302\ proj Dir = (-0.913868 0.101152 -0.3932093)\
zoneName = zone386: cellZoneVol = 0.0003867188\ nFaces = 28\ area = 0.03703125\ projected area = 0.00974108\ proj Dir = (-0.8704152 0.3897584 0.3007754)\
zoneName = zone387: cellZoneVol = 0.0003383789\ nFaces = 26\ area = 0.03445313\ projected area = 0.009851459\ proj Dir = (-0.4609123 0.457634 0.7603492)\
zoneName = zone388: cellZoneVol = 0.0002900391\ nFaces = 22\ area = 0.02882813\ projected area = 0.008504081\ proj Dir = (-0.6146362 0.3930325 0.6839209)\
zoneName = zone389: cellZoneVol = 0.0002416992\ nFaces = 20\ area = 0.02625\ projected area = 0.004694413\ proj Dir = (-0.9925615 0.05072694 -0.1106731)\
zoneName = zone390: cellZoneVol = 0.0002900391\ nFaces = 26\ area = 0.03445313\ projected area = 0.009506189\ proj Dir = (-0.3615321 -0.3862325 -0.8485982)\
zoneName = zone391: cellZoneVol = 0.0003867188\ nFaces = 28\ area = 0.03703125\ projected area = 0.008674066\ proj Dir = (0.06244137 -0.44941 -0.8911407)\
zoneName = zone392: cellZoneVol = 0.0002900391\ nFaces = 22\ area = 0.02882813\ projected area = 0.008551426\ proj Dir = (-0.6289025 -0.3731809 -0.6820687)\
zoneName = zone393: cellZoneVol = 0.0003383789\ nFaces = 26\ area = 0.03421875\ projected area = 0.007299633\ proj Dir = (-0.9931419 0.05719714 0.1019691)\
zoneName = zone394: cellZoneVol = 0.0003383789\ nFaces = 28\ area = 0.03703125\ projected area = 0.00825983\ proj Dir = (-0.9483659 0.01896152 0.316611)\
zoneName = zone395: cellZoneVol = 0.0002416992\ nFaces = 20\ area = 0.02648438\ projected area = 0.007518021\ proj Dir = (-0.6779941 -0.4772473 -0.5590698)\
zoneName = zone396: cellZoneVol = 0.0003383789\ nFaces = 26\ area = 0.03445313\ projected area = 0.008993353\ proj Dir = (0.1414906 -0.4721279 -0.8701009)\
zoneName = zone397: cellZoneVol = 0.0002900391\ nFaces = 22\ area = 0.02882813\ projected area = 0.00693696\ proj Dir = (-0.3096238 -0.5931869 -0.7431436)\
zoneName = zone398: cellZoneVol = 0.0003867187\ nFaces = 30\ area = 0.03984375\ projected area = 0.01061307\ proj Dir = (-0.9019981 -0.4022945 -0.1567118)\
zoneName = zone399: cellZoneVol = 0.0002416992\ nFaces = 20\ area = 0.02648437\ projected area = 0.007424\ proj Dir = (-0.658186 -0.598967 -0.4561027)\
zoneName = zone400: cellZoneVol = 0.0002416992\ nFaces = 20\ area = 0.02648438\ projected area = 0.006802035\ proj Dir = (0.2791764 -0.5488636 -0.7879145)\
zoneName = zone401: cellZoneVol = 0.0003383789\ nFaces = 24\ area = 0.031875\ projected area = 0.007857694\ proj Dir = (0.06796879 -0.6132129 -0.7869881)\
zoneName = zone402: cellZoneVol = 0.0002900391\ nFaces = 22\ area = 0.02929688\ projected area = 0.008545557\ proj Dir = (-0.6040691 -0.629474 -0.488736)\
zoneName = zone403: cellZoneVol = 0.0003383789\ nFaces = 24\ area = 0.031875\ projected area = 0.007767\ proj Dir = (-0.02783307 -0.7590165 -0.6504761)\
zoneName = zone404: cellZoneVol = 0.0001933594\ nFaces = 16\ area = 0.02109375\ projected area = 0.004188417\ proj Dir = (0.07923449 -0.6555515 -0.7509821)\
zoneName = zone405: cellZoneVol = 0.0003383789\ nFaces = 26\ area = 0.03421875\ projected area = 0.007682036\ proj Dir = (0.01762398 -0.6932165 -0.7205139)\
zoneName = zone406: cellZoneVol = 0.0003383789\ nFaces = 26\ area = 0.03445313\ projected area = 0.007689051\ proj Dir = (-0.01545524 -0.6637753 -0.7477723)\
zoneName = zone407: cellZoneVol = 0.0003383789\ nFaces = 26\ area = 0.03445313\ projected area = 0.007789144\ proj Dir = (-0.0249807 -0.7415453 -0.6704375)\
zoneName = zone408: cellZoneVol = 0.0002900391\ nFaces = 22\ area = 0.02929688\ projected area = 0.008262997\ proj Dir = (0.2284573 -0.6371601 -0.7360939)\
zoneName = zone409: cellZoneVol = 0.0002900391\ nFaces = 22\ area = 0.02929688\ projected area = 0.008325359\ proj Dir = (0.4207876 -0.6872408 -0.5921468)\
zoneName = zone410: cellZoneVol = 0.0002416992\ nFaces = 20\ area = 0.02648438\ projected area = 0.007684932\ proj Dir = (0.6415411 -0.6037615 -0.4731776)\
zoneName = zone411: cellZoneVol = 0.0003383789\ nFaces = 24\ area = 0.031875\ projected area = 0.008007299\ proj Dir = (-0.1176086 -0.5708218 -0.8126073)\
zoneName = zone412: cellZoneVol = 0.0002416992\ nFaces = 20\ area = 0.02648438\ projected area = 0.007572258\ proj Dir = (-0.4299605 -0.4314448 -0.7930885)\
zoneName = zone413: cellZoneVol = 0.0003383789\ nFaces = 26\ area = 0.03445312\ projected area = 0.009636933\ proj Dir = (0.4242189 -0.6386275 -0.6420227)\
zoneName = zone414: cellZoneVol = 0.0002900391\ nFaces = 26\ area = 0.03445312\ projected area = 0.008100578\ proj Dir = (0.9702609 -0.1805369 0.1612456)\
zoneName = zone415: cellZoneVol = 0.0004350586\ nFaces = 30\ area = 0.03960938\ projected area = 0.008815693\ proj Dir = (0.9884897 -0.04129139 0.1455444)\
zoneName = zone416: cellZoneVol = 0.0002900391\ nFaces = 24\ area = 0.031875\ projected area = 0.009005405\ proj Dir = (0.6864162 -0.4433508 -0.5764311)\
zoneName = zone417: cellZoneVol = 0.0002900391\ nFaces = 24\ area = 0.03164062\ projected area = 0.00807827\ proj Dir = (-0.07731725 -0.5357487 -0.8408302)\
zoneName = zone418: cellZoneVol = 0.0002900391\ nFaces = 22\ area = 0.02929688\ projected area = 0.00735237\ proj Dir = (0.01666466 -0.5041077 -0.86348)\
zoneName = zone419: cellZoneVol = 0.0001933594\ nFaces = 16\ area = 0.02109375\ projected area = 0.006298523\ proj Dir = (0.8160496 -0.2797735 -0.5057566)\
zoneName = zone420: cellZoneVol = 0.0001933594\ nFaces = 16\ area = 0.02109375\ projected area = 0.006112912\ proj Dir = (0.9457421 0.254769 0.2016549)\
zoneName = zone421: cellZoneVol = 0.0003383789\ nFaces = 24\ area = 0.031875\ projected area = 0.008769176\ proj Dir = (0.6897177 0.3413873 0.6385485)\
zoneName = zone422: cellZoneVol = 0.0002900391\ nFaces = 22\ area = 0.0290625\ projected area = 0.008326862\ proj Dir = (0.7066264 0.3826901 0.5951701)\
zoneName = zone423: cellZoneVol = 0.0003867187\ nFaces = 28\ area = 0.03703125\ projected area = 0.008798326\ proj Dir = (0.9852144 0.1639789 -0.04963443)\
zoneName = zone424: cellZoneVol = 0.0003867187\ nFaces = 28\ area = 0.03679687\ projected area = 0.0105708\ proj Dir = (0.6908993 -0.1559058 -0.7059402)\
zoneName = zone425: cellZoneVol = 0.0002416992\ nFaces = 22\ area = 0.0290625\ projected area = 0.007693564\ proj Dir = (0.6033106 -0.123263 -0.7879229)\
zoneName = zone426: cellZoneVol = 0.0002416992\ nFaces = 20\ area = 0.02648438\ projected area = 0.007764459\ proj Dir = (0.936253 0.282151 -0.2093349)\
zoneName = zone427: cellZoneVol = 0.0002900391\ nFaces = 22\ area = 0.02929688\ projected area = 0.008426542\ proj Dir = (0.6670001 0.5193856 0.5341811)\
zoneName = zone428: cellZoneVol = 0.0003383789\ nFaces = 24\ area = 0.031875\ projected area = 0.008799345\ proj Dir = (0.3785975 0.5081564 0.7735897)\
zoneName = zone429: cellZoneVol = 0.0003867188\ nFaces = 28\ area = 0.03703125\ projected area = 0.01066653\ proj Dir = (0.6010486 0.5906264 0.5384246)\
zoneName = zone430: cellZoneVol = 0.0002900391\ nFaces = 24\ area = 0.031875\ projected area = 0.008195606\ proj Dir = (0.7727675 0.6186473 0.1417954)\
zoneName = zone431: cellZoneVol = 0.0002416992\ nFaces = 20\ area = 0.02671875\ projected area = 0.007156085\ proj Dir = (0.695204 0.7077069 0.1258666)\
zoneName = zone432: cellZoneVol = 0.0002900391\ nFaces = 22\ area = 0.02929688\ projected area = 0.008225826\ proj Dir = (0.4517573 0.8109804 0.3717878)\
zoneName = zone433: cellZoneVol = 0.0003383789\ nFaces = 24\ area = 0.031875\ projected area = 0.008491074\ proj Dir = (0.2254425 0.8185509 0.5283466)\
zoneName = zone434: cellZoneVol = 0.0003383789\ nFaces = 26\ area = 0.03492188\ projected area = 0.01016333\ proj Dir = (0.08831703 0.8085072 0.5818214)\
zoneName = zone435: cellZoneVol = 0.0002900391\ nFaces = 22\ area = 0.02929688\ projected area = 0.007629914\ proj Dir = (-0.01227571 0.8079107 0.589177)\
zoneName = zone436: cellZoneVol = 0.0003383789\ nFaces = 24\ area = 0.031875\ projected area = 0.00812376\ proj Dir = (-0.1181987 0.8121921 0.5712906)\
zoneName = zone437: cellZoneVol = 0.0002900391\ nFaces = 22\ area = 0.02929688\ projected area = 0.008241969\ proj Dir = (-0.2468941 0.8151082 0.524063)\
zoneName = zone438: cellZoneVol = 0.0001933594\ nFaces = 18\ area = 0.02390625\ projected area = 0.00663916\ proj Dir = (-0.378713 0.8000402 0.4653087)\
zoneName = zone439: cellZoneVol = 0.0002416992\ nFaces = 20\ area = 0.02648438\ projected area = 0.007349122\ proj Dir = (-0.4657692 0.7589894 0.4549661)\
zoneName = zone440: cellZoneVol = 0.0003383789\ nFaces = 24\ area = 0.031875\ projected area = 0.009085479\ proj Dir = (-0.5751134 0.7001602 0.4231078)\
zoneName = zone441: cellZoneVol = 0.0002900391\ nFaces = 22\ area = 0.02929688\ projected area = 0.007770199\ proj Dir = (-0.8117499 0.5774988 0.08693214)\
zoneName = zone442: cellZoneVol = 0.0003867188\ nFaces = 28\ area = 0.03679688\ projected area = 0.01010559\ proj Dir = (-0.8509464 0.2265969 -0.4738608)\
zoneName = zone443: cellZoneVol = 0.0002900391\ nFaces = 24\ area = 0.03164062\ projected area = 0.008322829\ proj Dir = (-0.7180744 -0.02571607 -0.6954911)\
zoneName = zone444: cellZoneVol = 0.0003383789\ nFaces = 24\ area = 0.031875\ projected area = 0.007331776\ proj Dir = (-0.9124894 0.1043817 -0.3955598)\
zoneName = zone445: cellZoneVol = 0.0003383789\ nFaces = 24\ area = 0.031875\ projected area = 0.008013246\ proj Dir = (-0.8900405 0.3851916 0.2438346)\
zoneName = zone446: cellZoneVol = 0.0003867187\ nFaces = 30\ area = 0.03984375\ projected area = 0.01153993\ proj Dir = (-0.4808869 0.4854273 0.7301426)\
zoneName = zone447: cellZoneVol = 0.0003383789\ nFaces = 26\ area = 0.03421875\ projected area = 0.00940709\ proj Dir = (-0.4636788 0.4394341 0.7693502)\
zoneName = zone448: cellZoneVol = 0.0003383789\ nFaces = 26\ area = 0.03421875\ projected area = 0.008461248\ proj Dir = (-0.9503946 0.2241241 0.2156814)\
zoneName = zone449: cellZoneVol = 0.0003383789\ nFaces = 24\ area = 0.031875\ projected area = 0.008474057\ proj Dir = (-0.7139528 -0.2538724 -0.652549)\
zoneName = zone450: cellZoneVol = 0.0003867187\ nFaces = 28\ area = 0.03703125\ projected area = 0.009696649\ proj Dir = (-0.05553958 -0.4417144 -0.895435)\
zoneName = zone451: cellZoneVol = 0.0002900391\ nFaces = 22\ area = 0.02882812\ projected area = 0.00773579\ proj Dir = (-0.4515104 -0.447206 -0.7721044)\
zoneName = zone452: cellZoneVol = 0.0002900391\ nFaces = 22\ area = 0.0290625\ projected area = 0.005800517\ proj Dir = (-0.9944293 -0.04067097 -0.09724313)\
zoneName = zone453: cellZoneVol = 0.0003867187\ nFaces = 24\ area = 0.031875\ projected area = 0.007960468\ proj Dir = (-0.8526082 0.1860056 0.4883249)\
zoneName = zone454: cellZoneVol = 0.0002900391\ nFaces = 22\ area = 0.02929687\ projected area = 0.006570617\ proj Dir = (-0.9728211 -0.2114145 -0.09446172)\
zoneName = zone455: cellZoneVol = 0.0002900391\ nFaces = 22\ area = 0.02929687\ projected area = 0.007959525\ proj Dir = (-0.1608991 -0.5584215 -0.8138039)\
zoneName = zone456: cellZoneVol = 0.0003383789\ nFaces = 24\ area = 0.031875\ projected area = 0.007425442\ proj Dir = (-0.003027113 -0.5544326 -0.8322231)\
zoneName = zone457: cellZoneVol = 0.0001933594\ nFaces = 16\ area = 0.02109375\ projected area = 0.00640756\ proj Dir = (-0.8263388 -0.4309861 -0.3625122)\
zoneName = zone458: cellZoneVol = 0.0002416992\ nFaces = 20\ area = 0.02648437\ projected area = 0.005247867\ proj Dir = (-0.9170495 -0.3987561 -0.003725995)\
zoneName = zone459: cellZoneVol = 0.0003383789\ nFaces = 24\ area = 0.031875\ projected area = 0.008561483\ proj Dir = (-0.2152121 -0.7165569 -0.6634983)\
zoneName = zone460: cellZoneVol = 0.0002900391\ nFaces = 22\ area = 0.02929687\ projected area = 0.008291238\ proj Dir = (0.3891206 -0.4933874 -0.7779165)\
zoneName = zone461: cellZoneVol = 0.0002416992\ nFaces = 20\ area = 0.02625\ projected area = 0.006484463\ proj Dir = (-0.3100033 -0.6761423 -0.6683783)\
zoneName = zone462: cellZoneVol = 0.0003383789\ nFaces = 24\ area = 0.031875\ projected area = 0.008895049\ proj Dir = (-0.6866281 -0.6457161 -0.3340547)\
zoneName = zone463: cellZoneVol = 0.0003383789\ nFaces = 24\ area = 0.031875\ projected area = 0.008337431\ proj Dir = (0.1601737 -0.7749879 -0.6113412)\
zoneName = zone464: cellZoneVol = 0.0001933594\ nFaces = 16\ area = 0.02109375\ projected area = 0.004565435\ proj Dir = (0.1554354 -0.6928361 -0.7041434)\
zoneName = zone465: cellZoneVol = 0.0003383789\ nFaces = 24\ area = 0.031875\ projected area = 0.007670173\ proj Dir = (0.008258792 -0.7183942 -0.6955872)\
zoneName = zone466: cellZoneVol = 0.0003383789\ nFaces = 24\ area = 0.031875\ projected area = 0.007959385\ proj Dir = (-0.06756191 -0.7188904 -0.6918324)\
zoneName = zone467: cellZoneVol = 0.0003383789\ nFaces = 24\ area = 0.031875\ projected area = 0.007733803\ proj Dir = (-0.02451424 -0.7849968 -0.6190146)\
zoneName = zone468: cellZoneVol = 0.0001933594\ nFaces = 16\ area = 0.0215625\ projected area = 0.006234412\ proj Dir = (0.2240204 -0.6903834 -0.6878849)\
zoneName = zone469: cellZoneVol = 0.0002900391\ nFaces = 22\ area = 0.02929687\ projected area = 0.008339942\ proj Dir = (0.2428053 -0.7276229 -0.6415688)\
zoneName = zone470: cellZoneVol = 0.0002900391\ nFaces = 22\ area = 0.02882812\ projected area = 0.008508722\ proj Dir = (0.7491719 -0.6099358 -0.2583016)\
zoneName = zone471: cellZoneVol = 0.0002900391\ nFaces = 22\ area = 0.02929687\ projected area = 0.00850434\ proj Dir = (0.3660318 -0.647784 -0.6681292)\
zoneName = zone472: cellZoneVol = 0.0003383789\ nFaces = 24\ area = 0.031875\ projected area = 0.008776519\ proj Dir = (-0.4386002 -0.4398337 -0.7836939)\
zoneName = zone473: cellZoneVol = 0.0002900391\ nFaces = 22\ area = 0.02929687\ projected area = 0.007900016\ proj Dir = (-0.1069533 -0.6142125 -0.7818593)\
zoneName = zone474: cellZoneVol = 0.0002900391\ nFaces = 22\ area = 0.0290625\ projected area = 0.009157459\ proj Dir = (0.8649357 -0.4533125 -0.2153929)\
zoneName = zone475: cellZoneVol = 0.0001933594\ nFaces = 16\ area = 0.02109375\ projected area = 0.005903103\ proj Dir = (0.9074056 0.05316456 0.4168796)\
zoneName = zone476: cellZoneVol = 0.0001933594\ nFaces = 16\ area = 0.02109375\ projected area = 0.005516537\ proj Dir = (0.9932279 -0.1119129 -0.0312048)\
zoneName = zone477: cellZoneVol = 0.0003383789\ nFaces = 24\ area = 0.031875\ projected area = 0.009070546\ proj Dir = (0.4797324 -0.5360333 -0.6946403)\
zoneName = zone478: cellZoneVol = 0.0002900391\ nFaces = 24\ area = 0.031875\ projected area = 0.008696631\ proj Dir = (-0.07062982 -0.5272596 -0.8467637)\
zoneName = zone479: cellZoneVol = 0.0001933594\ nFaces = 18\ area = 0.02367187\ projected area = 0.006971614\ proj Dir = (0.440739 -0.463724 -0.768576)\
zoneName = zone480: cellZoneVol = 0.0002900391\ nFaces = 22\ area = 0.02882812\ projected area = 0.008385068\ proj Dir = (0.9769647 0.001283495 -0.2133973)\
zoneName = zone481: cellZoneVol = 0.0002416992\ nFaces = 20\ area = 0.02625\ projected area = 0.007786853\ proj Dir = (0.9221134 0.2003216 0.3310259)\
zoneName = zone482: cellZoneVol = 0.0003867187\ nFaces = 28\ area = 0.03703125\ projected area = 0.01055065\ proj Dir = (0.5876914 0.3900281 0.7088702)\
zoneName = zone483: cellZoneVol = 0.0003867187\ nFaces = 28\ area = 0.03703125\ projected area = 0.01055061\ proj Dir = (0.7115547 0.3928117 0.582571)\
zoneName = zone484: cellZoneVol = 0.0001933594\ nFaces = 18\ area = 0.02390625\ projected area = 0.00596599\ proj Dir = (0.9822745 0.1783526 -0.05768219)\
zoneName = zone485: cellZoneVol = 0.0003383789\ nFaces = 24\ area = 0.031875\ projected area = 0.007800414\ proj Dir = (0.7380442 -0.09827186 -0.6675578)\
zoneName = zone486: cellZoneVol = 0.0003867187\ nFaces = 28\ area = 0.03703125\ projected area = 0.009108378\ proj Dir = (0.7493055 -0.001892221 -0.6622218)\
zoneName = zone487: cellZoneVol = 0.0003383789\ nFaces = 26\ area = 0.03421875\ projected area = 0.00884558\ proj Dir = (0.9110059 0.4122268 -0.01172117)\
zoneName = zone488: cellZoneVol = 0.0003383789\ nFaces = 26\ area = 0.03445312\ projected area = 0.009924238\ proj Dir = (0.5668595 0.5665416 0.598081)\
zoneName = zone489: cellZoneVol = 0.0002416992\ nFaces = 20\ area = 0.02648437\ projected area = 0.007656762\ proj Dir = (0.4046911 0.5698042 0.7152261)\
zoneName = zone490: cellZoneVol = 0.0002900391\ nFaces = 22\ area = 0.0290625\ projected area = 0.008271546\ proj Dir = (0.5942108 0.6416332 0.4849952)\
zoneName = zone491: cellZoneVol = 0.0002416992\ nFaces = 20\ area = 0.02671875\ projected area = 0.00749489\ proj Dir = (0.6630967 0.7064764 0.2473738)\
zoneName = zone492: cellZoneVol = 0.0002900391\ nFaces = 22\ area = 0.02929688\ projected area = 0.008342968\ proj Dir = (0.5206389 0.798902 0.3011489)\
zoneName = zone493: cellZoneVol = 0.0002416992\ nFaces = 20\ area = 0.02671875\ projected area = 0.00760379\ proj Dir = (0.2913553 0.8507451 0.4374298)\
zoneName = zone494: cellZoneVol = 0.0004350586\ nFaces = 30\ area = 0.04007813\ projected area = 0.01157457\ proj Dir = (0.1163208 0.8546545 0.5059992)\
zoneName = zone495: cellZoneVol = 0.0002900391\ nFaces = 22\ area = 0.02929687\ projected area = 0.007539974\ proj Dir = (-0.01262602 0.8520291 0.5233421)\
zoneName = zone496: cellZoneVol = 0.0002416992\ nFaces = 20\ area = 0.02671875\ projected area = 0.007274453\ proj Dir = (-0.1354105 0.848983 0.5107758)\
zoneName = zone497: cellZoneVol = 0.0002416992\ nFaces = 20\ area = 0.02671875\ projected area = 0.007579501\ proj Dir = (-0.2621057 0.8368391 0.4806255)\
zoneName = zone498: cellZoneVol = 0.0003383789\ nFaces = 24\ area = 0.031875\ projected area = 0.008818531\ proj Dir = (-0.368559 0.8071358 0.4611899)\
zoneName = zone499: cellZoneVol = 0.0002900391\ nFaces = 22\ area = 0.02929688\ projected area = 0.008427861\ proj Dir = (-0.4664257 0.7626699 0.4480867)\
zoneName = zone500: cellZoneVol = 0.0003867187\ nFaces = 28\ area = 0.03703125\ projected area = 0.009955183\ proj Dir = (-0.6741139 0.6872475 0.2706681)\
zoneName = zone501: cellZoneVol = 0.0002416992\ nFaces = 20\ area = 0.02648437\ projected area = 0.007150964\ proj Dir = (-0.8760773 0.4364799 -0.2048752)\
zoneName = zone502: cellZoneVol = 0.0001933594\ nFaces = 16\ area = 0.02109375\ projected area = 0.005974686\ proj Dir = (-0.8161332 0.1076534 -0.5677476)\
zoneName = zone503: cellZoneVol = 0.0002416992\ nFaces = 20\ area = 0.02625\ projected area = 0.007733236\ proj Dir = (-0.9116568 0.119912 -0.3930687)\
zoneName = zone504: cellZoneVol = 0.0002416992\ nFaces = 20\ area = 0.02625\ projected area = 0.005720604\ proj Dir = (-0.9092379 0.3764121 0.1777651)\
zoneName = zone505: cellZoneVol = 0.0001933594\ nFaces = 16\ area = 0.02109375\ projected area = 0.006293007\ proj Dir = (-0.5341155 0.5052953 0.6777885)\
zoneName = zone506: cellZoneVol = 0.0002416992\ nFaces = 20\ area = 0.02648437\ projected area = 0.007556833\ proj Dir = (-0.3741796 0.4742195 0.7969351)\
[...]
zoneName = zone1672: cellZoneVol = 0.0002900391\ nFaces = 22\ area = 0.02929687\ projected area = 0.006886709\ proj Dir = (0.6359357 -0.7715558 -0.01695511)\
zoneName = zone1673: cellZoneVol = 0.0003383789\ nFaces = 28\ area = 0.03703125\ projected area = 0.01035235\ proj Dir = (0.7173181 -0.5852039 0.3781418)\
zoneName = zone1674: cellZoneVol = 0.0001933594\ nFaces = 16\ area = 0.02109375\ projected area = 0.005814542\ proj Dir = (0.649203 -0.5882146 0.482223)\
zoneName = zone1675: cellZoneVol = 0.0002900391\ nFaces = 22\ area = 0.02929688\ projected area = 0.008018864\ proj Dir = (0.6256806 -0.7198066 0.3006695)\
zoneName = zone1676: cellZoneVol = 0.0001933594\ nFaces = 16\ area = 0.02109375\ projected area = 0.006349651\ proj Dir = (0.8778029 -0.3304944 0.34675)\
zoneName = zone1677: cellZoneVol = 0.0001933594\ nFaces = 18\ area = 0.02390625\ projected area = 0.006315486\ proj Dir = (0.8472328 0.381719 0.3694418)\
zoneName = zone1678: cellZoneVol = 0.0004350586\ nFaces = 30\ area = 0.03960938\ projected area = 0.01132161\ proj Dir = (0.7827191 0.3367867 0.523379)\
zoneName = zone1679: cellZoneVol = 0.0002900391\ nFaces = 22\ area = 0.02929688\ projected area = 0.007397036\ proj Dir = (0.9123368 -0.2629529 0.3138429)\
zoneName = zone1680: cellZoneVol = 0.0001933594\ nFaces = 16\ area = 0.02109375\ projected area = 0.005873481\ proj Dir = (0.9418015 -0.334894 0.02925661)\
zoneName = zone1681: cellZoneVol = 0.0002416992\ nFaces = 20\ area = 0.02648438\ projected area = 0.007054283\ proj Dir = (0.9908235 -0.11677 -0.06806962)\
zoneName = zone1682: cellZoneVol = 0.0001933594\ nFaces = 16\ area = 0.02109375\ projected area = 0.005333961\ proj Dir = (0.9987869 -0.02879548 -0.03994324)\
zoneName = zone1683: cellZoneVol = 0.0002900391\ nFaces = 22\ area = 0.02882813\ projected area = 0.007947728\ proj Dir = (0.9980807 0.05998532 -0.01538307)\
zoneName = zone1684: cellZoneVol = 0.0002416992\ nFaces = 20\ area = 0.02625\ projected area = 0.007269223\ proj Dir = (0.9656498 0.2421833 0.09416853)\
zoneName = zone1685: cellZoneVol = 0.0002900391\ nFaces = 22\ area = 0.02929688\ projected area = 0.007807226\ proj Dir = (0.875682 0.4113049 0.2530006)\
zoneName = zone1686: cellZoneVol = 0.0003383789\ nFaces = 24\ area = 0.031875\ projected area = 0.008696034\ proj Dir = (0.7858735 0.5227478 0.3303598)\
zoneName = zone1687: cellZoneVol = 0.0001933594\ nFaces = 16\ area = 0.02109375\ projected area = 0.006291669\ proj Dir = (0.7330728 0.6007684 0.3188756)\
zoneName = zone1688: cellZoneVol = 0.0002900391\ nFaces = 22\ area = 0.02929688\ projected area = 0.008424267\ proj Dir = (0.6595298 0.6931426 0.2908158)\
zoneName = zone1689: cellZoneVol = 0.0002900391\ nFaces = 22\ area = 0.02929688\ projected area = 0.007856721\ proj Dir = (0.6016645 0.7611718 0.2421102)\
zoneName = zone1690: cellZoneVol = 0.0002900391\ nFaces = 22\ area = 0.02929688\ projected area = 0.007969286\ proj Dir = (0.5689722 0.8137846 0.1184283)\
zoneName = zone1691: cellZoneVol = 0.0001933594\ nFaces = 18\ area = 0.02390625\ projected area = 0.006325356\ proj Dir = (0.5100445 0.8321019 0.2178555)\
zoneName = zone1692: cellZoneVol = 0.0003383789\ nFaces = 24\ area = 0.031875\ projected area = 0.008327659\ proj Dir = (0.4146411 0.8766378 0.2440878)\
zoneName = zone1693: cellZoneVol = 0.0001933594\ nFaces = 16\ area = 0.0215625\ projected area = 0.006580774\ proj Dir = (0.2774118 0.9268858 0.2528346)\
zoneName = zone1694: cellZoneVol = 0.0001933594\ nFaces = 16\ area = 0.0215625\ projected area = 0.006406819\ proj Dir = (0.1429294 0.9559173 0.2565021)\
zoneName = zone1695: cellZoneVol = 0.0002900391\ nFaces = 22\ area = 0.02976562\ projected area = 0.009161333\ proj Dir = (0.005749408 0.9666079 0.2561954)\
zoneName = zone1696: cellZoneVol = 0.0001933594\ nFaces = 16\ area = 0.0215625\ projected area = 0.006383188\ proj Dir = (-0.1321756 0.9585907 0.2522569)\
zoneName = zone1697: cellZoneVol = 0.0003383789\ nFaces = 24\ area = 0.031875\ projected area = 0.007886894\ proj Dir = (-0.2689536 0.9316646 0.2442644)\
zoneName = zone1698: cellZoneVol = 0.0001933594\ nFaces = 18\ area = 0.02390625\ projected area = 0.006200033\ proj Dir = (-0.4085859 0.8828658 0.2315286)\
zoneName = zone1699: cellZoneVol = 0.0002900391\ nFaces = 22\ area = 0.02929688\ projected area = 0.008098116\ proj Dir = (-0.5046802 0.8399674 0.1993806)\
zoneName = zone1700: cellZoneVol = 0.0002900391\ nFaces = 22\ area = 0.02929688\ projected area = 0.007315227\ proj Dir = (-0.5658094 0.818236 0.1017325)\
zoneName = zone1701: cellZoneVol = 0.0002900391\ nFaces = 22\ area = 0.02929688\ projected area = 0.008293789\ proj Dir = (-0.5939229 0.770207 0.2324582)\
zoneName = zone1702: cellZoneVol = 0.0002900391\ nFaces = 22\ area = 0.0290625\ projected area = 0.007730878\ proj Dir = (-0.6429371 0.716777 0.2699308)\
zoneName = zone1703: cellZoneVol = 0.0003383789\ nFaces = 24\ area = 0.031875\ projected area = 0.008608446\ proj Dir = (-0.7403309 0.6251328 0.2472227)\
zoneName = zone1704: cellZoneVol = 0.0001933594\ nFaces = 16\ area = 0.02109375\ projected area = 0.006266117\ proj Dir = (-0.8420485 0.5010225 0.1998269)\
zoneName = zone1705: cellZoneVol = 0.0003867188\ nFaces = 28\ area = 0.03703125\ projected area = 0.008928366\ proj Dir = (-0.9267759 0.3382884 0.1632401)\
zoneName = zone1706: cellZoneVol = 0.0002900391\ nFaces = 22\ area = 0.02882813\ projected area = 0.00869743\ proj Dir = (-0.9646251 0.1934649 0.1790804)\
zoneName = zone1707: cellZoneVol = 0.0001933594\ nFaces = 16\ area = 0.02109375\ projected area = 0.005822715\ proj Dir = (-0.974332 0.09844411 0.20245)\
zoneName = zone1708: cellZoneVol = 0.0001933594\ nFaces = 16\ area = 0.02109375\ projected area = 0.005617701\ proj Dir = (-0.9813915 0.02349324 0.190575)\
zoneName = zone1709: cellZoneVol = 0.0001933594\ nFaces = 18\ area = 0.02390625\ projected area = 0.006010792\ proj Dir = (-0.9802955 0.1440183 0.1352012)\
zoneName = zone1710: cellZoneVol = 0.0001933594\ nFaces = 16\ area = 0.02109375\ projected area = 0.005610819\ proj Dir = (-0.9877236 -0.04780856 -0.1487158)\
zoneName = zone1711: cellZoneVol = 0.0001933594\ nFaces = 18\ area = 0.02367188\ projected area = 0.005817086\ proj Dir = (-0.9430639 -0.3325751 -0.004924702)\
zoneName = zone1712: cellZoneVol = 0.0001933594\ nFaces = 16\ area = 0.02109375\ projected area = 0.00578899\ proj Dir = (-0.8979279 -0.008721523 0.4400562)\
zoneName = zone1713: cellZoneVol = 0.0001933594\ nFaces = 16\ area = 0.02109375\ projected area = 0.006159626\ proj Dir = (-0.6894339 0.3396733 0.6397679)\
zoneName = zone1714: cellZoneVol = 0.0002416992\ nFaces = 20\ area = 0.02648437\ projected area = 0.006464561\ proj Dir = (-0.8677632 -0.01642674 0.4967064)\
zoneName = zone1715: cellZoneVol = 0.0002900391\ nFaces = 22\ area = 0.02929687\ projected area = 0.008396594\ proj Dir = (-0.7438598 -0.5587889 0.3666436)\
zoneName = zone1716: cellZoneVol = 0.0003383789\ nFaces = 26\ area = 0.03445312\ projected area = 0.008099314\ proj Dir = (-0.6802889 -0.7289727 0.07619529)\
zoneName = zone1717: cellZoneVol = 0.0001933594\ nFaces = 16\ area = 0.02109375\ projected area = 0.005025486\ proj Dir = (-0.5703902 -0.7772915 -0.2654674)\
zoneName = zone1718: cellZoneVol = 0.0002416992\ nFaces = 20\ area = 0.02648438\ projected area = 0.007291368\ proj Dir = (-0.3117302 -0.7808121 -0.5414395)\
zoneName = zone1719: cellZoneVol = 0.0002900391\ nFaces = 22\ area = 0.02929688\ projected area = 0.008064994\ proj Dir = (-0.3531758 -0.8650192 -0.3563826)\
zoneName = zone1720: cellZoneVol = 0.0002900391\ nFaces = 22\ area = 0.02929688\ projected area = 0.008361817\ proj Dir = (-0.3319656 -0.7996351 -0.5003824)\
zoneName = zone1721: cellZoneVol = 0.0002416992\ nFaces = 20\ area = 0.02671875\ projected area = 0.007479037\ proj Dir = (0.2894066 -0.8921201 -0.3469373)\
zoneName = zone1722: cellZoneVol = 0.0002900391\ nFaces = 24\ area = 0.031875\ projected area = 0.006752135\ proj Dir = (-0.201422 -0.9786692 -0.04044371)\
zoneName = zone1723: cellZoneVol = 0.0002416992\ nFaces = 20\ area = 0.02625\ projected area = 0.006715269\ proj Dir = (-0.7365725 -0.6761421 -0.01711315)\
zoneName = zone1724: cellZoneVol = 0.0003383789\ nFaces = 24\ area = 0.031875\ projected area = 0.009202795\ proj Dir = (-0.5491466 -0.639804 0.5376698)\
zoneName = zone1725: cellZoneVol = 0.0002416992\ nFaces = 20\ area = 0.02648438\ projected area = 0.006474769\ proj Dir = (0.1673392 -0.7919049 0.5872685)\
zoneName = zone1726: cellZoneVol = 0.0003383789\ nFaces = 24\ area = 0.031875\ projected area = 0.008622635\ proj Dir = (0.7822515 -0.5531068 0.2866278)\
zoneName = zone1727: cellZoneVol = 0.0002900391\ nFaces = 22\ area = 0.02929687\ projected area = 0.007757157\ proj Dir = (0.2750788 -0.9125648 0.3025841)\
zoneName = zone1728: cellZoneVol = 0.0002416992\ nFaces = 20\ area = 0.02671875\ projected area = 0.006766127\ proj Dir = (-0.1791918 -0.9710428 -0.1580072)\
zoneName = zone1729: cellZoneVol = 0.0003383789\ nFaces = 24\ area = 0.031875\ projected area = 0.008992252\ proj Dir = (0.3786117 -0.7300859 -0.5688829)\
zoneName = zone1730: cellZoneVol = 0.0002900391\ nFaces = 22\ area = 0.02929688\ projected area = 0.007855089\ proj Dir = (0.3883033 -0.8806308 -0.2714956)\
zoneName = zone1731: cellZoneVol = 0.0001933594\ nFaces = 18\ area = 0.02390625\ projected area = 0.00597174\ proj Dir = (0.108743 -0.8620094 -0.4950907)\
zoneName = zone1732: cellZoneVol = 0.0001933594\ nFaces = 16\ area = 0.02109375\ projected area = 0.005508632\ proj Dir = (0.4016229 -0.8111831 -0.4250658)\
zoneName = zone1733: cellZoneVol = 0.0002416992\ nFaces = 20\ area = 0.02671875\ projected area = 0.007098604\ proj Dir = (0.593356 -0.8012723 -0.07675556)\
zoneName = zone1734: cellZoneVol = 0.0002416992\ nFaces = 20\ area = 0.02648438\ projected area = 0.007426283\ proj Dir = (0.6416956 -0.7098922 0.2903099)\
zoneName = zone1735: cellZoneVol = 0.0002900391\ nFaces = 22\ area = 0.02929688\ projected area = 0.008488976\ proj Dir = (0.658845 -0.5594303 0.5029523)\
zoneName = zone1736: cellZoneVol = 0.0002900391\ nFaces = 22\ area = 0.0290625\ projected area = 0.007494152\ proj Dir = (0.8817696 -0.1535975 0.445971)\
zoneName = zone1737: cellZoneVol = 0.0002900391\ nFaces = 22\ area = 0.0290625\ projected area = 0.008081271\ proj Dir = (0.7601272 0.2572258 0.5966921)\
zoneName = zone1738: cellZoneVol = 0.0003383789\ nFaces = 26\ area = 0.03421875\ projected area = 0.009928653\ proj Dir = (0.6053608 0.3060566 0.7347569)\
zoneName = zone1739: cellZoneVol = 0.0002900391\ nFaces = 24\ area = 0.03164063\ projected area = 0.008507013\ proj Dir = (0.8078642 0.06650079 0.5856048)\
zoneName = zone1740: cellZoneVol = 0.0001933594\ nFaces = 16\ area = 0.02109375\ projected area = 0.005962063\ proj Dir = (0.6933773 -0.2361566 0.6807775)\
zoneName = zone1741: cellZoneVol = 0.0002900391\ nFaces = 22\ area = 0.02929688\ projected area = 0.007378872\ proj Dir = (0.7426388 -0.2220913 0.6317935)\
zoneName = zone1742: cellZoneVol = 0.0004350586\ nFaces = 30\ area = 0.039375\ projected area = 0.01123533\ proj Dir = (0.8125994 -0.1331915 0.5673995)\
zoneName = zone1743: cellZoneVol = 0.0003383789\ nFaces = 26\ area = 0.03421875\ projected area = 0.008787702\ proj Dir = (0.8870828 -0.02341517 0.4610162)\
zoneName = zone1744: cellZoneVol = 0.0002900391\ nFaces = 22\ area = 0.02929688\ projected area = 0.006836085\ proj Dir = (0.911738 0.1068619 0.3966288)\
zoneName = zone1745: cellZoneVol = 0.0001933594\ nFaces = 16\ area = 0.02109375\ projected area = 0.005062462\ proj Dir = (0.8770711 0.2786277 0.3912965)\
zoneName = zone1746: cellZoneVol = 0.0001933594\ nFaces = 18\ area = 0.02390625\ projected area = 0.006110413\ proj Dir = (0.7851912 0.454537 0.4205603)\
zoneName = zone1747: cellZoneVol = 0.0001933594\ nFaces = 16\ area = 0.02109375\ projected area = 0.005597656\ proj Dir = (0.6990452 0.578244 0.4206777)\
zoneName = zone1748: cellZoneVol = 0.0001933594\ nFaces = 16\ area = 0.02109375\ projected area = 0.005571194\ proj Dir = (0.6217396 0.6713353 0.4034214)\
zoneName = zone1749: cellZoneVol = 0.0001450195\ nFaces = 14\ area = 0.01851563\ projected area = 0.004993896\ proj Dir = (0.4790434 0.7782682 0.4059754)\
zoneName = zone1750: cellZoneVol = 0.0002416992\ nFaces = 20\ area = 0.02648438\ projected area = 0.007241558\ proj Dir = (0.5228468 0.7560712 0.3936847)\
zoneName = zone1751: cellZoneVol = 0.0003383789\ nFaces = 24\ area = 0.031875\ projected area = 0.008940426\ proj Dir = (0.5632388 0.7444629 0.3585205)\
zoneName = zone1752: cellZoneVol = 0.0001933594\ nFaces = 16\ area = 0.0215625\ projected area = 0.006696168\ proj Dir = (0.4006491 0.8497233 0.3427106)\
zoneName = zone1753: cellZoneVol = 0.0002416992\ nFaces = 20\ area = 0.02671875\ projected area = 0.007431768\ proj Dir = (0.270902 0.8997692 0.3420928)\
zoneName = zone1754: cellZoneVol = 0.0002900391\ nFaces = 22\ area = 0.02929688\ projected area = 0.007530212\ proj Dir = (0.1385701 0.9290836 0.3429315)\
zoneName = zone1755: cellZoneVol = 0.0004350586\ nFaces = 30\ area = 0.04007813\ projected area = 0.01059182\ proj Dir = (0.003745074 0.9394164 0.3427576)\
zoneName = zone1756: cellZoneVol = 0.0002416992\ nFaces = 20\ area = 0.02671875\ projected area = 0.007063535\ proj Dir = (-0.1316563 0.9308097 0.340969)\
zoneName = zone1757: cellZoneVol = 0.0001933594\ nFaces = 16\ area = 0.0215625\ projected area = 0.006635011\ proj Dir = (-0.2654137 0.9027364 0.3385594)\
zoneName = zone1758: cellZoneVol = 0.0003383789\ nFaces = 24\ area = 0.031875\ projected area = 0.008591374\ proj Dir = (-0.3972162 0.8530679 0.3383702)\
zoneName = zone1759: cellZoneVol = 0.0002416992\ nFaces = 20\ area = 0.02648438\ projected area = 0.007148099\ proj Dir = (-0.5593698 0.7498933 0.3532215)\
zoneName = zone1760: cellZoneVol = 0.0001450195\ nFaces = 14\ area = 0.01851563\ projected area = 0.004961991\ proj Dir = (-0.5227625 0.7634013 0.3793914)\
zoneName = zone1761: cellZoneVol = 0.0001450195\ nFaces = 14\ area = 0.01851562\ projected area = 0.004946789\ proj Dir = (-0.4832976 0.7861427 0.3852312)\
zoneName = zone1762: cellZoneVol = 0.0001450195\ nFaces = 14\ area = 0.01851563\ projected area = 0.004958092\ proj Dir = (-0.6333702 0.6835939 0.3626865)\
zoneName = zone1763: cellZoneVol = 0.0001450195\ nFaces = 14\ area = 0.01851563\ projected area = 0.004875074\ proj Dir = (-0.7331019 0.5854781 0.3460883)\
zoneName = zone1764: cellZoneVol = 0.0001933594\ nFaces = 16\ area = 0.02109375\ projected area = 0.00515054\ proj Dir = (-0.8214729 0.4597222 0.3373985)\
zoneName = zone1765: cellZoneVol = 0.0002416992\ nFaces = 20\ area = 0.02648438\ projected area = 0.007257123\ proj Dir = (-0.8764996 0.3161176 0.3630676)\
zoneName = zone1766: cellZoneVol = 0.0003383789\ nFaces = 26\ area = 0.03445313\ projected area = 0.008909309\ proj Dir = (-0.8860444 0.1751455 0.4292427)\
zoneName = zone1767: cellZoneVol = 0.0004350586\ nFaces = 30\ area = 0.039375\ projected area = 0.0107389\ proj Dir = (-0.8673361 0.04698459 0.4955003)\
zoneName = zone1768: cellZoneVol = 0.0003383789\ nFaces = 24\ area = 0.031875\ projected area = 0.007525973\ proj Dir = (-0.8299153 -0.06981689 0.5535035)\
zoneName = zone1769: cellZoneVol = 0.0002900391\ nFaces = 22\ area = 0.0290625\ projected area = 0.007808373\ proj Dir = (-0.7710742 -0.1530086 0.6180881)\
zoneName = zone1770: cellZoneVol = 0.0001933594\ nFaces = 16\ area = 0.02109375\ projected area = 0.004973342\ proj Dir = (-0.8582595 -0.04415428 0.5113131)\
zoneName = zone1771: cellZoneVol = 0.0004833984\ nFaces = 32\ area = 0.0421875\ projected area = 0.01154533\ proj Dir = (-0.7006259 0.1226416 0.7029099)\
zoneName = zone1772: cellZoneVol = 0.0002900391\ nFaces = 22\ area = 0.0290625\ projected area = 0.008197764\ proj Dir = (-0.6163099 0.299957 0.72814)\
zoneName = zone1773: cellZoneVol = 0.0003867188\ nFaces = 24\ area = 0.031875\ projected area = 0.008376604\ proj Dir = (-0.7661139 0.2405943 0.5959731)\
zoneName = zone1774: cellZoneVol = 0.0002416992\ nFaces = 20\ area = 0.02648437\ projected area = 0.006014894\ proj Dir = (-0.9015103 -0.401254 0.1620935)\
zoneName = zone1775: cellZoneVol = 0.0002416992\ nFaces = 20\ area = 0.02648437\ projected area = 0.007568733\ proj Dir = (-0.5527716 -0.638939 -0.5349771)\
zoneName = zone1776: cellZoneVol = 0.0002900391\ nFaces = 24\ area = 0.03164062\ projected area = 0.009557586\ proj Dir = (-0.3364884 -0.3675995 -0.8669753)\
zoneName = zone1777: cellZoneVol = 0.0001933594\ nFaces = 18\ area = 0.02390625\ projected area = 0.005974137\ proj Dir = (-0.2273582 -0.09229459 -0.9694277)\
zoneName = zone1778: cellZoneVol = 0.0002416992\ nFaces = 22\ area = 0.02929688\ projected area = 0.006195996\ proj Dir = (-0.1532078 0.09448576 -0.9836665)\
zoneName = zone1779: cellZoneVol = 0.0001933594\ nFaces = 16\ area = 0.0215625\ projected area = 0.003418177\ proj Dir = (-0.1341821 0.09403699 -0.9864848)\
zoneName = zone1780: cellZoneVol = 0.0002900391\ nFaces = 22\ area = 0.02929688\ projected area = 0.005738364\ proj Dir = (0.06751292 0.3052205 -0.9498855)\
zoneName = zone1781: cellZoneVol = 0.0001933594\ nFaces = 16\ area = 0.0215625\ projected area = 0.005041439\ proj Dir = (0.1849424 0.4000784 -0.8976267)\
zoneName = zone1782: cellZoneVol = 0.0001450195\ nFaces = 14\ area = 0.01851563\ projected area = 0.004851077\ proj Dir = (-0.220369 0.2144356 0.9515539)\
zoneName = zone1783: cellZoneVol = 0.0002416992\ nFaces = 20\ area = 0.02625\ projected area = 0.007288116\ proj Dir = (-0.07149118 -0.4235966 -0.9030254)\
zoneName = zone1784: cellZoneVol = 0.0002416992\ nFaces = 20\ area = 0.02648437\ projected area = 0.007466163\ proj Dir = (-0.4461022 -0.73274 -0.5138919)\
zoneName = zone1785: cellZoneVol = 0.0002900391\ nFaces = 22\ area = 0.02929688\ projected area = 0.006607233\ proj Dir = (0.01971573 -0.9801276 0.1973859)\
zoneName = zone1786: cellZoneVol = 0.0001933594\ nFaces = 16\ area = 0.02109375\ projected area = 0.005824387\ proj Dir = (0.4947779 -0.7169203 -0.4911417)\
zoneName = zone1787: cellZoneVol = 0.0002416992\ nFaces = 20\ area = 0.02671875\ projected area = 0.007269777\ proj Dir = (0.1707554 -0.6944732 -0.6989632)\
zoneName = zone1788: cellZoneVol = 0.0001933594\ nFaces = 16\ area = 0.0215625\ projected area = 0.004141697\ proj Dir = (-0.2082974 0.20224 -0.956928)\
zoneName = zone1789: cellZoneVol = 0.0002900391\ nFaces = 22\ area = 0.02929688\ projected area = 0.006624549\ proj Dir = (-0.2209243 0.3490964 -0.9106724)\
zoneName = zone1790: cellZoneVol = 0.0001933594\ nFaces = 16\ area = 0.0215625\ projected area = 0.003549783\ proj Dir = (-0.01325671 0.1736688 -0.9847149)\
zoneName = zone1791: cellZoneVol = 0.0002900391\ nFaces = 24\ area = 0.031875\ projected area = 0.007619347\ proj Dir = (0.1000391 0.1606466 -0.9819291)\
zoneName = zone1792: cellZoneVol = 0.0002416992\ nFaces = 22\ area = 0.0290625\ projected area = 0.006955939\ proj Dir = (0.09973878 0.03835818 -0.994274)\
zoneName = zone1793: cellZoneVol = 0.0002900391\ nFaces = 22\ area = 0.0290625\ projected area = 0.008730782\ proj Dir = (0.1761392 -0.1917954 -0.9654996)\
zoneName = zone1794: cellZoneVol = 0.0002416992\ nFaces = 22\ area = 0.0290625\ projected area = 0.008565283\ proj Dir = (0.3601841 -0.4615257 -0.8107166)\
zoneName = zone1795: cellZoneVol = 0.0002416992\ nFaces = 20\ area = 0.02648438\ projected area = 0.007470833\ proj Dir = (0.6164208 -0.6323783 -0.4691728)\
zoneName = zone1796: cellZoneVol = 0.0003383789\ nFaces = 24\ area = 0.031875\ projected area = 0.007755849\ proj Dir = (0.8925434 -0.4265864 0.1462543)\
zoneName = zone1797: cellZoneVol = 0.0002416992\ nFaces = 20\ area = 0.02648438\ projected area = 0.006668635\ proj Dir = (0.7954074 0.05529715 0.6035472)\
zoneName = zone1798: cellZoneVol = 0.0004350586\ nFaces = 30\ area = 0.03960938\ projected area = 0.01145213\ proj Dir = (0.5429071 0.3944117 0.7414117)\
zoneName = zone1799: cellZoneVol = 0.0003383789\ nFaces = 26\ area = 0.03421875\ projected area = 0.009367252\ proj Dir = (0.3303311 0.4398312 0.8351227)\

End
