/*---------------------------------------------------------------------------*\
| =========                 |                                                 |
| \\      /  F ield         | OpenFOAM: The Open Source CFD Toolbox           |
|  \\    /   O peration     | Version:  v1812                                 |
|   \\  /    A nd           | Web:      www.OpenFOAM.com                      |
|    \\/     M anipulation  |                                                 |
\*---------------------------------------------------------------------------*/
Build  : c7ad3a5-20201013 OPENFOAM=1812
Arch   : "LSB;label=32;scalar=64"
Exec   : C:\Program Files/SimFlow/engine-1812/bin/blockMesh -noFunctionObjects
Date   : Dec 28 2021
Time   : 13:58:38
Host   : SERVAASCOMPUTER
PID    : 3540
I/O    : uncollated
Case   : C:/Users/Vozze/simflow/porosityCoeff/porosityCoeff
nProcs : 1
fileModificationChecking : Monitoring run-time modified files using timeStampMaster (fileModificationSkew 10)
allowSystemOperations : Allowing user-supplied system call operations

// * * * * * * * * * * * * * * * * * * * * * * * * * * * * * * * * * * * * * //
Create time

Creating block mesh from
    "C:/Users/Vozze/simflow/porosityCoeff/porosityCoeff/system/blockMeshDict"
Creating block edges
No non-planar block faces defined
Creating topology blocks
Creating topology patches

Creating block mesh topology

Check topology

	Basic statistics
		Number of internal faces : 0
		Number of boundary faces : 6
		Number of defined boundary faces : 6
		Number of undefined boundary faces : 0
	Checking patch -> block consistency

Creating block offsets
Creating merge list .
Deleting polyMesh directory
    "C:/Users/Vozze/simflow/porosityCoeff/porosityCoeff/constant/polyMesh"

Creating polyMesh from blockMesh
Creating patches
Creating cells
Creating points with scale 1
    Block 0 cell size :
        i : 0.02525 .. 0.02525
        j : 0.02525 .. 0.02525
        k : 0.02525 .. 0.02525


There are no merge patch pairs

Writing polyMesh with 0 cellZones
----------------
Mesh Information
----------------
  boundingBox: (-0.505 -0.505 -0.505) (0.505 0.505 0.505)
  nPoints: 68921
  nCells: 64000
  nFaces: 196800
  nInternalFaces: 187200
----------------
Patches
----------------
  patch 0 (start: 187200 size: 1600) name: inlet
  patch 1 (start: 188800 size: 1600) name: outlet
  patch 2 (start: 190400 size: 6400) name: boundaries

End

