/*---------------------------------------------------------------------------*\
| =========                 |                                                 |
| \\      /  F ield         | OpenFOAM: The Open Source CFD Toolbox           |
|  \\    /   O peration     | Version:  2106                                  |
|   \\  /    A nd           | Website:  www.openfoam.com                      |
|    \\/     M anipulation  |                                                 |
\*---------------------------------------------------------------------------*/
Build  : _f815a12b-20210902 OPENFOAM=2106
Arch   : "LSB;label=32;scalar=64"
Exec   : simpleFoam
Date   : Jan 02 2022
Time   : 15:50:13
Host   : ServaasComputer
PID    : 12279
I/O    : uncollated
Case   : /home/servaas/OpenFOAM/servaas-v2106/porosityCoeff/porosityCoeff
nProcs : 1
trapFpe: Floating point exception trapping enabled (FOAM_SIGFPE).
fileModificationChecking : Monitoring run-time modified files using timeStampMaster (fileModificationSkew 5, maxFileModificationPolls 20)
allowSystemOperations : Allowing user-supplied system call operations

// * * * * * * * * * * * * * * * * * * * * * * * * * * * * * * * * * * * * * //
Create time

Overriding OptimisationSwitches according to controlDict
    fileHandler (unregistered)
    fileModificationSkew 0;

    maxMasterFileBufferSize 1e+09;

    maxThreadFileBufferSize 1e+09;

    mpiBufferSize (unregistered)
Create mesh for time = 0


SIMPLE: convergence criteria
    field p	 tolerance 0.0001
    field U	 tolerance 0.0001

Reading field p

Reading field U

Reading/calculating face flux field phi

Selecting incompressible transport model Newtonian
Selecting turbulence model type laminar
Selecting laminar stress model Stokes
Creating MRF zone list from MRFProperties
Creating finite volume options from "system/fvOptions"

Selecting finite volume options type explicitPorositySource
    Source: porosityInbox_1
    - selecting cells using cellZone box_1
    - selected 8000 cell(s) with volume 0.1287876
Porosity region porosityInbox_1:
    selecting model: DarcyForchheimer
    creating porous zone: box_1
    origin: (0 0 0) e1: (1 0 0) e2: (0 1 0)
    local bounds: (0.505 0.505 0.505)


Starting time loop

Time = 1

DILUPBiCGStab:  Solving for Ux, Initial residual = 1, Final residual = 0.0004569065, No Iterations 1
DILUPBiCGStab:  Solving for Uy, Initial residual = 0.9999842, Final residual = 0.0003484122, No Iterations 1
DILUPBiCGStab:  Solving for Uz, Initial residual = 0.9999815, Final residual = 0.0003562946, No Iterations 1
GAMG:  Solving for p, Initial residual = 1, Final residual = 0.005981457, No Iterations 5
GAMG:  Solving for p, Initial residual = 0.0004980602, Final residual = 2.014505e-06, No Iterations 5
time step continuity errors : sum local = 2.330456e-05, global = -1.484515e-05, cumulative = -1.484515e-05
ExecutionTime = 0.28 s  ClockTime = 1 s

Time = 2

DILUPBiCGStab:  Solving for Ux, Initial residual = 0.2811781, Final residual = 0.02656555, No Iterations 1
DILUPBiCGStab:  Solving for Uy, Initial residual = 0.2047707, Final residual = 0.004680711, No Iterations 1
DILUPBiCGStab:  Solving for Uz, Initial residual = 0.2047709, Final residual = 0.004680706, No Iterations 1
GAMG:  Solving for p, Initial residual = 0.9303956, Final residual = 0.006874556, No Iterations 5
GAMG:  Solving for p, Initial residual = 0.0005752415, Final residual = 4.550251e-06, No Iterations 5
time step continuity errors : sum local = 3.433201e-05, global = -2.506462e-05, cumulative = -3.990976e-05
ExecutionTime = 0.42 s  ClockTime = 1 s

Time = 3

DILUPBiCGStab:  Solving for Ux, Initial residual = 0.2142371, Final residual = 0.005751803, No Iterations 1
DILUPBiCGStab:  Solving for Uy, Initial residual = 0.1254087, Final residual = 0.002984823, No Iterations 1
DILUPBiCGStab:  Solving for Uz, Initial residual = 0.1254087, Final residual = 0.002984822, No Iterations 1
GAMG:  Solving for p, Initial residual = 0.0314108, Final residual = 0.0002730673, No Iterations 3
GAMG:  Solving for p, Initial residual = 0.0004272108, Final residual = 1.996899e-06, No Iterations 4
time step continuity errors : sum local = 1.376389e-05, global = 7.994459e-06, cumulative = -3.191531e-05
ExecutionTime = 0.54 s  ClockTime = 1 s

Time = 4

DILUPBiCGStab:  Solving for Ux, Initial residual = 0.1529601, Final residual = 0.003918699, No Iterations 1
DILUPBiCGStab:  Solving for Uy, Initial residual = 0.09180277, Final residual = 0.002237929, No Iterations 1
DILUPBiCGStab:  Solving for Uz, Initial residual = 0.09180302, Final residual = 0.002237941, No Iterations 1
GAMG:  Solving for p, Initial residual = 0.04343477, Final residual = 0.0001457918, No Iterations 4
GAMG:  Solving for p, Initial residual = 0.0003828231, Final residual = 1.408879e-06, No Iterations 5
time step continuity errors : sum local = 3.423284e-06, global = 2.07101e-06, cumulative = -2.98443e-05
ExecutionTime = 0.69 s  ClockTime = 1 s

Time = 5

DILUPBiCGStab:  Solving for Ux, Initial residual = 0.1150042, Final residual = 0.002764878, No Iterations 1
DILUPBiCGStab:  Solving for Uy, Initial residual = 0.09759943, Final residual = 0.002340225, No Iterations 1
DILUPBiCGStab:  Solving for Uz, Initial residual = 0.09759978, Final residual = 0.002340234, No Iterations 1
GAMG:  Solving for p, Initial residual = 0.07331064, Final residual = 0.0006959375, No Iterations 3
GAMG:  Solving for p, Initial residual = 0.00118151, Final residual = 4.105749e-06, No Iterations 5
time step continuity errors : sum local = 6.495106e-06, global = 4.034121e-06, cumulative = -2.581018e-05
ExecutionTime = 0.83 s  ClockTime = 1 s

Time = 6

DILUPBiCGStab:  Solving for Ux, Initial residual = 0.09606708, Final residual = 0.002245484, No Iterations 1
DILUPBiCGStab:  Solving for Uy, Initial residual = 0.1021845, Final residual = 0.002300644, No Iterations 1
DILUPBiCGStab:  Solving for Uz, Initial residual = 0.1021848, Final residual = 0.002300649, No Iterations 1
GAMG:  Solving for p, Initial residual = 0.1191712, Final residual = 0.0007312348, No Iterations 3
GAMG:  Solving for p, Initial residual = 0.0007419997, Final residual = 2.567348e-06, No Iterations 5
time step continuity errors : sum local = 4.324207e-06, global = 2.889991e-06, cumulative = -2.292018e-05
ExecutionTime = 0.97 s  ClockTime = 1 s

Time = 7

DILUPBiCGStab:  Solving for Ux, Initial residual = 0.08870268, Final residual = 0.002099999, No Iterations 1
DILUPBiCGStab:  Solving for Uy, Initial residual = 0.0919711, Final residual = 0.001969084, No Iterations 1
DILUPBiCGStab:  Solving for Uz, Initial residual = 0.09197136, Final residual = 0.001969089, No Iterations 1
GAMG:  Solving for p, Initial residual = 0.1324229, Final residual = 0.0008820335, No Iterations 3
GAMG:  Solving for p, Initial residual = 0.000825684, Final residual = 5.908785e-06, No Iterations 4
time step continuity errors : sum local = 1.003255e-05, global = 4.765567e-06, cumulative = -1.815462e-05
ExecutionTime = 1.1 s  ClockTime = 1 s

Time = 8

DILUPBiCGStab:  Solving for Ux, Initial residual = 0.08799352, Final residual = 0.00202394, No Iterations 1
DILUPBiCGStab:  Solving for Uy, Initial residual = 0.08010739, Final residual = 0.001626201, No Iterations 1
DILUPBiCGStab:  Solving for Uz, Initial residual = 0.08010779, Final residual = 0.001626213, No Iterations 1
GAMG:  Solving for p, Initial residual = 0.1340895, Final residual = 0.0009107205, No Iterations 3
GAMG:  Solving for p, Initial residual = 0.0009131113, Final residual = 8.669482e-06, No Iterations 4
time step continuity errors : sum local = 1.413007e-05, global = 1.002971e-05, cumulative = -8.124904e-06
ExecutionTime = 1.22 s  ClockTime = 2 s

Time = 9

DILUPBiCGStab:  Solving for Ux, Initial residual = 0.08699851, Final residual = 0.0018837, No Iterations 1
DILUPBiCGStab:  Solving for Uy, Initial residual = 0.07330264, Final residual = 0.001417352, No Iterations 1
DILUPBiCGStab:  Solving for Uz, Initial residual = 0.07330277, Final residual = 0.001417354, No Iterations 1
GAMG:  Solving for p, Initial residual = 0.1407505, Final residual = 0.00114254, No Iterations 3
GAMG:  Solving for p, Initial residual = 0.001195176, Final residual = 4.065467e-06, No Iterations 5
time step continuity errors : sum local = 5.806639e-06, global = 3.99399e-06, cumulative = -4.130914e-06
ExecutionTime = 1.35 s  ClockTime = 2 s

Time = 10

DILUPBiCGStab:  Solving for Ux, Initial residual = 0.08678719, Final residual = 0.001734349, No Iterations 1
DILUPBiCGStab:  Solving for Uy, Initial residual = 0.07003014, Final residual = 0.001293404, No Iterations 1
DILUPBiCGStab:  Solving for Uz, Initial residual = 0.07002994, Final residual = 0.001293397, No Iterations 1
GAMG:  Solving for p, Initial residual = 0.1551774, Final residual = 0.00130956, No Iterations 3
GAMG:  Solving for p, Initial residual = 0.001352143, Final residual = 4.562915e-06, No Iterations 5
time step continuity errors : sum local = 6.029018e-06, global = 4.009519e-06, cumulative = -1.213952e-07
ExecutionTime = 1.58 s  ClockTime = 2 s

Time = 11

DILUPBiCGStab:  Solving for Ux, Initial residual = 0.08652684, Final residual = 0.001598204, No Iterations 1
DILUPBiCGStab:  Solving for Uy, Initial residual = 0.06924668, Final residual = 0.001211073, No Iterations 1
DILUPBiCGStab:  Solving for Uz, Initial residual = 0.06924645, Final residual = 0.001211066, No Iterations 1
GAMG:  Solving for p, Initial residual = 0.1624076, Final residual = 0.001327774, No Iterations 3
GAMG:  Solving for p, Initial residual = 0.001316019, Final residual = 4.412277e-06, No Iterations 5
time step continuity errors : sum local = 5.691888e-06, global = 3.68008e-06, cumulative = 3.558685e-06
ExecutionTime = 1.71 s  ClockTime = 2 s

Time = 12

DILUPBiCGStab:  Solving for Ux, Initial residual = 0.08785388, Final residual = 0.001487132, No Iterations 1
DILUPBiCGStab:  Solving for Uy, Initial residual = 0.06997548, Final residual = 0.001144654, No Iterations 1
DILUPBiCGStab:  Solving for Uz, Initial residual = 0.06997538, Final residual = 0.001144651, No Iterations 1
GAMG:  Solving for p, Initial residual = 0.1611031, Final residual = 0.001239907, No Iterations 3
GAMG:  Solving for p, Initial residual = 0.001177932, Final residual = 3.921909e-06, No Iterations 5
time step continuity errors : sum local = 5.173085e-06, global = 3.231274e-06, cumulative = 6.789959e-06
ExecutionTime = 1.83 s  ClockTime = 2 s

Time = 13

DILUPBiCGStab:  Solving for Ux, Initial residual = 0.09012876, Final residual = 0.001380203, No Iterations 1
DILUPBiCGStab:  Solving for Uy, Initial residual = 0.07187657, Final residual = 0.001089642, No Iterations 1
DILUPBiCGStab:  Solving for Uz, Initial residual = 0.07187655, Final residual = 0.001089641, No Iterations 1
GAMG:  Solving for p, Initial residual = 0.1507396, Final residual = 0.001106154, No Iterations 3
GAMG:  Solving for p, Initial residual = 0.001011693, Final residual = 3.34986e-06, No Iterations 5
time step continuity errors : sum local = 4.720114e-06, global = 2.830071e-06, cumulative = 9.62003e-06
ExecutionTime = 1.96 s  ClockTime = 2 s

Time = 14

DILUPBiCGStab:  Solving for Ux, Initial residual = 0.09350621, Final residual = 0.001263036, No Iterations 1
DILUPBiCGStab:  Solving for Uy, Initial residual = 0.07516367, Final residual = 0.001042688, No Iterations 1
DILUPBiCGStab:  Solving for Uz, Initial residual = 0.07516367, Final residual = 0.001042687, No Iterations 1
GAMG:  Solving for p, Initial residual = 0.1348207, Final residual = 0.0009535354, No Iterations 3
GAMG:  Solving for p, Initial residual = 0.0008685932, Final residual = 2.852684e-06, No Iterations 5
time step continuity errors : sum local = 4.314598e-06, global = 2.487981e-06, cumulative = 1.210801e-05
ExecutionTime = 2.09 s  ClockTime = 2 s

Time = 15

DILUPBiCGStab:  Solving for Ux, Initial residual = 0.09824923, Final residual = 0.001138252, No Iterations 1
DILUPBiCGStab:  Solving for Uy, Initial residual = 0.08018016, Final residual = 0.0009957645, No Iterations 1
DILUPBiCGStab:  Solving for Uz, Initial residual = 0.08018011, Final residual = 0.000995763, No Iterations 1
GAMG:  Solving for p, Initial residual = 0.1184848, Final residual = 0.0008119546, No Iterations 3
GAMG:  Solving for p, Initial residual = 0.0007552892, Final residual = 2.448656e-06, No Iterations 5
time step continuity errors : sum local = 3.862364e-06, global = 2.12521e-06, cumulative = 1.423322e-05
ExecutionTime = 2.21 s  ClockTime = 3 s

Time = 16

DILUPBiCGStab:  Solving for Ux, Initial residual = 0.1041024, Final residual = 0.0100117, No Iterations 1
DILUPBiCGStab:  Solving for Uy, Initial residual = 0.0871162, Final residual = 0.008275634, No Iterations 1
DILUPBiCGStab:  Solving for Uz, Initial residual = 0.08711607, Final residual = 0.008275619, No Iterations 1
GAMG:  Solving for p, Initial residual = 0.105305, Final residual = 0.0007205146, No Iterations 3
GAMG:  Solving for p, Initial residual = 0.000680234, Final residual = 2.186571e-06, No Iterations 5
time step continuity errors : sum local = 3.519585e-06, global = 1.87229e-06, cumulative = 1.610551e-05
ExecutionTime = 2.33 s  ClockTime = 3 s

Time = 17

DILUPBiCGStab:  Solving for Ux, Initial residual = 0.1107047, Final residual = 0.009652681, No Iterations 1
DILUPBiCGStab:  Solving for Uy, Initial residual = 0.09790779, Final residual = 0.008672816, No Iterations 1
DILUPBiCGStab:  Solving for Uz, Initial residual = 0.09790758, Final residual = 0.008672797, No Iterations 1
GAMG:  Solving for p, Initial residual = 0.0944676, Final residual = 0.0005945701, No Iterations 3
GAMG:  Solving for p, Initial residual = 0.0005768475, Final residual = 5.471677e-06, No Iterations 4
time step continuity errors : sum local = 8.68832e-06, global = 3.663641e-06, cumulative = 1.976915e-05
ExecutionTime = 2.45 s  ClockTime = 3 s

Time = 18

DILUPBiCGStab:  Solving for Ux, Initial residual = 0.1169393, Final residual = 0.009037247, No Iterations 1
DILUPBiCGStab:  Solving for Uy, Initial residual = 0.110205, Final residual = 0.008865093, No Iterations 1
DILUPBiCGStab:  Solving for Uz, Initial residual = 0.1102047, Final residual = 0.008865068, No Iterations 1
GAMG:  Solving for p, Initial residual = 0.08652144, Final residual = 0.0005146857, No Iterations 3
GAMG:  Solving for p, Initial residual = 0.0005121061, Final residual = 3.845148e-06, No Iterations 4
time step continuity errors : sum local = 5.860005e-06, global = 2.208589e-06, cumulative = 2.197774e-05
ExecutionTime = 2.56 s  ClockTime = 3 s

Time = 19

DILUPBiCGStab:  Solving for Ux, Initial residual = 0.1211257, Final residual = 0.008074327, No Iterations 1
DILUPBiCGStab:  Solving for Uy, Initial residual = 0.1229711, Final residual = 0.008716099, No Iterations 1
DILUPBiCGStab:  Solving for Uz, Initial residual = 0.1229706, Final residual = 0.008716063, No Iterations 1
GAMG:  Solving for p, Initial residual = 0.08169465, Final residual = 0.0004770543, No Iterations 3
GAMG:  Solving for p, Initial residual = 0.0004846519, Final residual = 4.423101e-06, No Iterations 4
time step continuity errors : sum local = 6.323216e-06, global = -2.568231e-06, cumulative = 1.940951e-05
ExecutionTime = 2.69 s  ClockTime = 3 s

Time = 20

DILUPBiCGStab:  Solving for Ux, Initial residual = 0.120936, Final residual = 0.006781555, No Iterations 1
DILUPBiCGStab:  Solving for Uy, Initial residual = 0.1348249, Final residual = 0.008109063, No Iterations 1
DILUPBiCGStab:  Solving for Uz, Initial residual = 0.1348239, Final residual = 0.008109018, No Iterations 1
GAMG:  Solving for p, Initial residual = 0.08184558, Final residual = 0.0004626133, No Iterations 3
GAMG:  Solving for p, Initial residual = 0.000479703, Final residual = 4.410092e-06, No Iterations 4
time step continuity errors : sum local = 5.778043e-06, global = -2.620403e-06, cumulative = 1.678911e-05
ExecutionTime = 2.89 s  ClockTime = 3 s

Time = 21

DILUPBiCGStab:  Solving for Ux, Initial residual = 0.1135508, Final residual = 0.005319133, No Iterations 1
DILUPBiCGStab:  Solving for Uy, Initial residual = 0.1421013, Final residual = 0.006959645, No Iterations 1
DILUPBiCGStab:  Solving for Uz, Initial residual = 0.1421009, Final residual = 0.006959627, No Iterations 1
GAMG:  Solving for p, Initial residual = 0.08749272, Final residual = 0.0005014636, No Iterations 3
GAMG:  Solving for p, Initial residual = 0.0005302431, Final residual = 5.022997e-06, No Iterations 4
time step continuity errors : sum local = 5.911955e-06, global = -2.626304e-06, cumulative = 1.41628e-05
ExecutionTime = 3.01 s  ClockTime = 3 s

Time = 22

DILUPBiCGStab:  Solving for Ux, Initial residual = 0.09745469, Final residual = 0.003909555, No Iterations 1
DILUPBiCGStab:  Solving for Uy, Initial residual = 0.1385116, Final residual = 0.005370238, No Iterations 1
DILUPBiCGStab:  Solving for Uz, Initial residual = 0.1385115, Final residual = 0.005370213, No Iterations 1
GAMG:  Solving for p, Initial residual = 0.0949251, Final residual = 0.0005626738, No Iterations 3
GAMG:  Solving for p, Initial residual = 0.0006053148, Final residual = 5.927126e-06, No Iterations 4
time step continuity errors : sum local = 6.160277e-06, global = -2.713316e-06, cumulative = 1.144949e-05
ExecutionTime = 3.13 s  ClockTime = 3 s

Time = 23

DILUPBiCGStab:  Solving for Ux, Initial residual = 0.07588336, Final residual = 0.002649642, No Iterations 1
DILUPBiCGStab:  Solving for Uy, Initial residual = 0.1195711, Final residual = 0.003687799, No Iterations 1
DILUPBiCGStab:  Solving for Uz, Initial residual = 0.1195707, Final residual = 0.003687771, No Iterations 1
GAMG:  Solving for p, Initial residual = 0.1008473, Final residual = 0.0006198045, No Iterations 3
GAMG:  Solving for p, Initial residual = 0.0006763621, Final residual = 2.244459e-06, No Iterations 5
time step continuity errors : sum local = 2.032813e-06, global = -8.548781e-07, cumulative = 1.059461e-05
ExecutionTime = 3.27 s  ClockTime = 4 s

Time = 24

DILUPBiCGStab:  Solving for Ux, Initial residual = 0.05398466, Final residual = 0.001609381, No Iterations 1
DILUPBiCGStab:  Solving for Uy, Initial residual = 0.09087387, Final residual = 0.002303531, No Iterations 1
DILUPBiCGStab:  Solving for Uz, Initial residual = 0.09087447, Final residual = 0.002303536, No Iterations 1
GAMG:  Solving for p, Initial residual = 0.1041936, Final residual = 0.0006588257, No Iterations 3
GAMG:  Solving for p, Initial residual = 0.0007263076, Final residual = 2.481334e-06, No Iterations 5
time step continuity errors : sum local = 1.941984e-06, global = -8.074895e-07, cumulative = 9.787119e-06
ExecutionTime = 3.39 s  ClockTime = 4 s

Time = 25

DILUPBiCGStab:  Solving for Ux, Initial residual = 0.03666497, Final residual = 0.0008561271, No Iterations 1
DILUPBiCGStab:  Solving for Uy, Initial residual = 0.06344076, Final residual = 0.001314956, No Iterations 1
DILUPBiCGStab:  Solving for Uz, Initial residual = 0.06344086, Final residual = 0.001314958, No Iterations 1
GAMG:  Solving for p, Initial residual = 0.1046597, Final residual = 0.0006741064, No Iterations 3
GAMG:  Solving for p, Initial residual = 0.0007484411, Final residual = 2.616667e-06, No Iterations 5
time step continuity errors : sum local = 1.757564e-06, global = -7.246358e-07, cumulative = 9.062484e-06
ExecutionTime = 3.51 s  ClockTime = 4 s

Time = 26

DILUPBiCGStab:  Solving for Ux, Initial residual = 0.02506252, Final residual = 0.0004245132, No Iterations 1
DILUPBiCGStab:  Solving for Uy, Initial residual = 0.04468066, Final residual = 0.0007249567, No Iterations 1
DILUPBiCGStab:  Solving for Uz, Initial residual = 0.04468071, Final residual = 0.0007249579, No Iterations 1
GAMG:  Solving for p, Initial residual = 0.1030934, Final residual = 0.0006660156, No Iterations 3
GAMG:  Solving for p, Initial residual = 0.0007406161, Final residual = 2.637393e-06, No Iterations 5
time step continuity errors : sum local = 1.523305e-06, global = -6.233449e-07, cumulative = 8.439139e-06
ExecutionTime = 3.63 s  ClockTime = 4 s

Time = 27

DILUPBiCGStab:  Solving for Ux, Initial residual = 0.01785768, Final residual = 0.0002065033, No Iterations 1
DILUPBiCGStab:  Solving for Uy, Initial residual = 0.0344099, Final residual = 0.0003908978, No Iterations 1
DILUPBiCGStab:  Solving for Uz, Initial residual = 0.03440995, Final residual = 0.000390899, No Iterations 1
GAMG:  Solving for p, Initial residual = 0.0998874, Final residual = 0.0006399313, No Iterations 3
GAMG:  Solving for p, Initial residual = 0.000711161, Final residual = 2.572805e-06, No Iterations 5
time step continuity errors : sum local = 1.28168e-06, global = -5.213105e-07, cumulative = 7.917828e-06
ExecutionTime = 3.78 s  ClockTime = 4 s

Time = 28

DILUPBiCGStab:  Solving for Ux, Initial residual = 0.01361212, Final residual = 0.000104619, No Iterations 1
DILUPBiCGStab:  Solving for Uy, Initial residual = 0.02906969, Final residual = 0.0002163847, No Iterations 1
DILUPBiCGStab:  Solving for Uz, Initial residual = 0.02906967, Final residual = 0.0002163851, No Iterations 1
GAMG:  Solving for p, Initial residual = 0.09493564, Final residual = 0.0006011515, No Iterations 3
GAMG:  Solving for p, Initial residual = 0.0006654384, Final residual = 2.436523e-06, No Iterations 5
time step continuity errors : sum local = 1.055826e-06, global = -4.274289e-07, cumulative = 7.490399e-06
ExecutionTime = 3.9 s  ClockTime = 4 s

Time = 29

DILUPBiCGStab:  Solving for Ux, Initial residual = 0.01105791, Final residual = 6.201335e-05, No Iterations 1
DILUPBiCGStab:  Solving for Uy, Initial residual = 0.02540375, Final residual = 0.000147779, No Iterations 1
DILUPBiCGStab:  Solving for Uz, Initial residual = 0.02540368, Final residual = 0.000147779, No Iterations 1
GAMG:  Solving for p, Initial residual = 0.08865494, Final residual = 0.0005528401, No Iterations 3
GAMG:  Solving for p, Initial residual = 0.0006064744, Final residual = 2.233913e-06, No Iterations 5
time step continuity errors : sum local = 8.53689e-07, global = -3.444309e-07, cumulative = 7.145968e-06
ExecutionTime = 4.02 s  ClockTime = 4 s

Time = 30

DILUPBiCGStab:  Solving for Ux, Initial residual = 0.009180374, Final residual = 4.472746e-05, No Iterations 1
DILUPBiCGStab:  Solving for Uy, Initial residual = 0.02211474, Final residual = 0.0001245936, No Iterations 1
DILUPBiCGStab:  Solving for Uz, Initial residual = 0.02211467, Final residual = 0.000124594, No Iterations 1
GAMG:  Solving for p, Initial residual = 0.08124434, Final residual = 0.0004936127, No Iterations 3
GAMG:  Solving for p, Initial residual = 0.0005367107, Final residual = 1.980017e-06, No Iterations 5
time step continuity errors : sum local = 6.754397e-07, global = -2.722645e-07, cumulative = 6.873704e-06
ExecutionTime = 4.22 s  ClockTime = 5 s

Time = 31

DILUPBiCGStab:  Solving for Ux, Initial residual = 0.007657494, Final residual = 3.61228e-05, No Iterations 1
DILUPBiCGStab:  Solving for Uy, Initial residual = 0.01914759, Final residual = 0.0001080264, No Iterations 1
DILUPBiCGStab:  Solving for Uz, Initial residual = 0.01914756, Final residual = 0.0001080274, No Iterations 1
GAMG:  Solving for p, Initial residual = 0.07336795, Final residual = 0.0004268444, No Iterations 3
GAMG:  Solving for p, Initial residual = 0.0004600636, Final residual = 1.688951e-06, No Iterations 5
time step continuity errors : sum local = 5.206633e-07, global = -2.108274e-07, cumulative = 6.662876e-06
ExecutionTime = 4.34 s  ClockTime = 5 s

Time = 32

DILUPBiCGStab:  Solving for Ux, Initial residual = 0.006388158, Final residual = 3.048336e-05, No Iterations 1
DILUPBiCGStab:  Solving for Uy, Initial residual = 0.01658841, Final residual = 9.341974e-05, No Iterations 1
DILUPBiCGStab:  Solving for Uz, Initial residual = 0.01658842, Final residual = 9.342101e-05, No Iterations 1
GAMG:  Solving for p, Initial residual = 0.06516563, Final residual = 0.0003601141, No Iterations 3
GAMG:  Solving for p, Initial residual = 0.0003848238, Final residual = 1.393751e-06, No Iterations 5
time step continuity errors : sum local = 3.927818e-07, global = -1.611832e-07, cumulative = 6.501693e-06
ExecutionTime = 4.46 s  ClockTime = 5 s

Time = 33

DILUPBiCGStab:  Solving for Ux, Initial residual = 0.005309036, Final residual = 2.608128e-05, No Iterations 1
DILUPBiCGStab:  Solving for Uy, Initial residual = 0.01425869, Final residual = 8.011493e-05, No Iterations 1
DILUPBiCGStab:  Solving for Uz, Initial residual = 0.01425873, Final residual = 8.011628e-05, No Iterations 1
GAMG:  Solving for p, Initial residual = 0.0570919, Final residual = 0.0003006903, No Iterations 3
GAMG:  Solving for p, Initial residual = 0.0003188046, Final residual = 1.133904e-06, No Iterations 5
time step continuity errors : sum local = 2.952277e-07, global = -1.238008e-07, cumulative = 6.377892e-06
ExecutionTime = 4.59 s  ClockTime = 5 s

Time = 34

DILUPBiCGStab:  Solving for Ux, Initial residual = 0.004368621, Final residual = 2.235792e-05, No Iterations 1
DILUPBiCGStab:  Solving for Uy, Initial residual = 0.01208424, Final residual = 6.806503e-05, No Iterations 1
DILUPBiCGStab:  Solving for Uz, Initial residual = 0.01208431, Final residual = 6.806638e-05, No Iterations 1
GAMG:  Solving for p, Initial residual = 0.04953142, Final residual = 0.0002510955, No Iterations 3
GAMG:  Solving for p, Initial residual = 0.0002641794, Final residual = 9.269827e-07, No Iterations 5
time step continuity errors : sum local = 2.252743e-07, global = -9.67585e-08, cumulative = 6.281134e-06
ExecutionTime = 4.71 s  ClockTime = 5 s

Time = 35

DILUPBiCGStab:  Solving for Ux, Initial residual = 0.003547851, Final residual = 1.891828e-05, No Iterations 1
DILUPBiCGStab:  Solving for Uy, Initial residual = 0.01003921, Final residual = 5.691119e-05, No Iterations 1
DILUPBiCGStab:  Solving for Uz, Initial residual = 0.0100393, Final residual = 5.691249e-05, No Iterations 1
GAMG:  Solving for p, Initial residual = 0.04262871, Final residual = 0.0002110674, No Iterations 3
GAMG:  Solving for p, Initial residual = 0.0002204416, Final residual = 7.723279e-07, No Iterations 5
time step continuity errors : sum local = 1.768975e-07, global = -7.739756e-08, cumulative = 6.203736e-06
ExecutionTime = 4.83 s  ClockTime = 5 s

Time = 36

DILUPBiCGStab:  Solving for Ux, Initial residual = 0.002838496, Final residual = 1.567379e-05, No Iterations 1
DILUPBiCGStab:  Solving for Uy, Initial residual = 0.00817176, Final residual = 4.660145e-05, No Iterations 1
DILUPBiCGStab:  Solving for Uz, Initial residual = 0.008171867, Final residual = 4.660267e-05, No Iterations 1
GAMG:  Solving for p, Initial residual = 0.0364713, Final residual = 0.0001784795, No Iterations 3
GAMG:  Solving for p, Initial residual = 0.0001851405, Final residual = 6.582285e-07, No Iterations 5
time step continuity errors : sum local = 1.433782e-07, global = -6.284466e-08, cumulative = 6.140892e-06
ExecutionTime = 4.95 s  ClockTime = 5 s

Time = 37

DILUPBiCGStab:  Solving for Ux, Initial residual = 0.002233157, Final residual = 1.268638e-05, No Iterations 1
DILUPBiCGStab:  Solving for Uy, Initial residual = 0.006504609, Final residual = 3.721467e-05, No Iterations 1
DILUPBiCGStab:  Solving for Uz, Initial residual = 0.006504721, Final residual = 3.721578e-05, No Iterations 1
GAMG:  Solving for p, Initial residual = 0.0310495, Final residual = 0.0001459821, No Iterations 3
GAMG:  Solving for p, Initial residual = 0.000150509, Final residual = 5.591131e-07, No Iterations 5
time step continuity errors : sum local = 1.167598e-07, global = -4.985194e-08, cumulative = 6.09104e-06
ExecutionTime = 5.09 s  ClockTime = 5 s

Time = 38

DILUPBiCGStab:  Solving for Ux, Initial residual = 0.001725393, Final residual = 1.000154e-05, No Iterations 1
DILUPBiCGStab:  Solving for Uy, Initial residual = 0.005052594, Final residual = 2.88747e-05, No Iterations 1
DILUPBiCGStab:  Solving for Uz, Initial residual = 0.005052702, Final residual = 2.88757e-05, No Iterations 1
GAMG:  Solving for p, Initial residual = 0.02627507, Final residual = 0.0001156656, No Iterations 3
GAMG:  Solving for p, Initial residual = 0.000118609, Final residual = 4.701725e-07, No Iterations 5
time step continuity errors : sum local = 9.481729e-08, global = -3.863777e-08, cumulative = 6.052402e-06
ExecutionTime = 5.25 s  ClockTime = 6 s

Time = 39

DILUPBiCGStab:  Solving for Ux, Initial residual = 0.001303291, Final residual = 7.685354e-06, No Iterations 1
DILUPBiCGStab:  Solving for Uy, Initial residual = 0.003824633, Final residual = 2.170083e-05, No Iterations 1
DILUPBiCGStab:  Solving for Uz, Initial residual = 0.003824728, Final residual = 2.170167e-05, No Iterations 1
GAMG:  Solving for p, Initial residual = 0.02211914, Final residual = 9.425155e-05, No Iterations 3
GAMG:  Solving for p, Initial residual = 9.619116e-05, Final residual = 3.986515e-07, No Iterations 5
time step continuity errors : sum local = 7.813888e-08, global = -3.071197e-08, cumulative = 6.02169e-06
ExecutionTime = 5.38 s  ClockTime = 6 s

Time = 40

DILUPBiCGStab:  Solving for Ux, Initial residual = 0.0009620992, Final residual = 5.722241e-06, No Iterations 1
DILUPBiCGStab:  Solving for Uy, Initial residual = 0.002816519, Final residual = 1.576642e-05, No Iterations 1
DILUPBiCGStab:  Solving for Uz, Initial residual = 0.002816598, Final residual = 1.576708e-05, No Iterations 1
GAMG:  Solving for p, Initial residual = 0.01852526, Final residual = 7.772887e-05, No Iterations 3
GAMG:  Solving for p, Initial residual = 7.900274e-05, Final residual = 9.984411e-07, No Iterations 4
time step continuity errors : sum local = 1.912873e-07, global = -6.711077e-08, cumulative = 5.954579e-06
ExecutionTime = 5.56 s  ClockTime = 6 s

Time = 41

DILUPBiCGStab:  Solving for Ux, Initial residual = 0.0006931542, Final residual = 4.142743e-06, No Iterations 1
DILUPBiCGStab:  Solving for Uy, Initial residual = 0.002013222, Final residual = 1.107126e-05, No Iterations 1
DILUPBiCGStab:  Solving for Uz, Initial residual = 0.002013375, Final residual = 1.10733e-05, No Iterations 1
GAMG:  Solving for p, Initial residual = 0.01541663, Final residual = 6.249275e-05, No Iterations 3
GAMG:  Solving for p, Initial residual = 6.329862e-05, Final residual = 7.630028e-07, No Iterations 4
time step continuity errors : sum local = 1.435661e-07, global = -4.313989e-08, cumulative = 5.911439e-06
ExecutionTime = 5.69 s  ClockTime = 6 s

Time = 42

DILUPBiCGStab:  Solving for Ux, Initial residual = 0.0004910038, Final residual = 2.89435e-06, No Iterations 1
DILUPBiCGStab:  Solving for Uy, Initial residual = 0.001401178, Final residual = 7.538193e-06, No Iterations 1
DILUPBiCGStab:  Solving for Uz, Initial residual = 0.001401248, Final residual = 7.53887e-06, No Iterations 1
GAMG:  Solving for p, Initial residual = 0.01273962, Final residual = 4.978734e-05, No Iterations 3
GAMG:  Solving for p, Initial residual = 5.028638e-05, Final residual = 5.545199e-07, No Iterations 4
time step continuity errors : sum local = 1.028779e-07, global = -2.370021e-08, cumulative = 5.887739e-06
ExecutionTime = 5.82 s  ClockTime = 6 s

Time = 43

DILUPBiCGStab:  Solving for Ux, Initial residual = 0.0003514777, Final residual = 2.020224e-06, No Iterations 1
DILUPBiCGStab:  Solving for Uy, Initial residual = 0.0009637927, Final residual = 5.041838e-06, No Iterations 1
DILUPBiCGStab:  Solving for Uz, Initial residual = 0.0009638064, Final residual = 5.041753e-06, No Iterations 1
GAMG:  Solving for p, Initial residual = 0.01047795, Final residual = 3.978352e-05, No Iterations 3
GAMG:  Solving for p, Initial residual = 4.009274e-05, Final residual = 4.135777e-07, No Iterations 4
time step continuity errors : sum local = 7.58899e-08, global = -1.435563e-08, cumulative = 5.873384e-06
ExecutionTime = 5.94 s  ClockTime = 6 s

Time = 44

DILUPBiCGStab:  Solving for Ux, Initial residual = 0.0002624313, Final residual = 1.466488e-06, No Iterations 1
DILUPBiCGStab:  Solving for Uy, Initial residual = 0.0006859411, Final residual = 3.439829e-06, No Iterations 1
DILUPBiCGStab:  Solving for Uz, Initial residual = 0.0006859653, Final residual = 3.440135e-06, No Iterations 1
GAMG:  Solving for p, Initial residual = 0.008581027, Final residual = 3.187941e-05, No Iterations 3
GAMG:  Solving for p, Initial residual = 3.207148e-05, Final residual = 3.268547e-07, No Iterations 4
time step continuity errors : sum local = 5.946483e-08, global = -1.189585e-08, cumulative = 5.861488e-06
ExecutionTime = 6.06 s  ClockTime = 6 s

Time = 45

DILUPBiCGStab:  Solving for Ux, Initial residual = 0.0002062762, Final residual = 1.182105e-06, No Iterations 1
DILUPBiCGStab:  Solving for Uy, Initial residual = 0.0005139917, Final residual = 2.5836e-06, No Iterations 1
DILUPBiCGStab:  Solving for Uz, Initial residual = 0.0005140382, Final residual = 2.584343e-06, No Iterations 1
GAMG:  Solving for p, Initial residual = 0.006999964, Final residual = 2.560459e-05, No Iterations 3
GAMG:  Solving for p, Initial residual = 2.572364e-05, Final residual = 8.704442e-07, No Iterations 3
time step continuity errors : sum local = 1.573129e-07, global = -3.354208e-08, cumulative = 5.827946e-06
ExecutionTime = 6.18 s  ClockTime = 6 s

Time = 46

DILUPBiCGStab:  Solving for Ux, Initial residual = 0.0001713241, Final residual = 1.043308e-06, No Iterations 1
DILUPBiCGStab:  Solving for Uy, Initial residual = 0.0004046812, Final residual = 2.231922e-06, No Iterations 1
DILUPBiCGStab:  Solving for Uz, Initial residual = 0.0004046567, Final residual = 2.231355e-06, No Iterations 1
GAMG:  Solving for p, Initial residual = 0.005694237, Final residual = 2.061514e-05, No Iterations 3
GAMG:  Solving for p, Initial residual = 2.068915e-05, Final residual = 7.233036e-07, No Iterations 3
time step continuity errors : sum local = 1.3005e-07, global = -3.395567e-08, cumulative = 5.79399e-06
ExecutionTime = 6.31 s  ClockTime = 7 s

Time = 47

DILUPBiCGStab:  Solving for Ux, Initial residual = 0.0001464379, Final residual = 9.678215e-07, No Iterations 1
DILUPBiCGStab:  Solving for Uy, Initial residual = 0.0003294865, Final residual = 2.050726e-06, No Iterations 1
DILUPBiCGStab:  Solving for Uz, Initial residual = 0.0003294963, Final residual = 2.050852e-06, No Iterations 1
GAMG:  Solving for p, Initial residual = 0.004625918, Final residual = 1.65747e-05, No Iterations 3
GAMG:  Solving for p, Initial residual = 1.662082e-05, Final residual = 6.047572e-07, No Iterations 3
time step continuity errors : sum local = 1.083007e-07, global = -3.183032e-08, cumulative = 5.76216e-06
ExecutionTime = 6.42 s  ClockTime = 7 s

Time = 48

DILUPBiCGStab:  Solving for Ux, Initial residual = 0.0001273549, Final residual = 8.968177e-07, No Iterations 1
DILUPBiCGStab:  Solving for Uy, Initial residual = 0.0002762034, Final residual = 1.91011e-06, No Iterations 1
DILUPBiCGStab:  Solving for Uz, Initial residual = 0.000276241, Final residual = 1.91071e-06, No Iterations 1
GAMG:  Solving for p, Initial residual = 0.003755069, Final residual = 1.340228e-05, No Iterations 3
GAMG:  Solving for p, Initial residual = 1.343109e-05, Final residual = 4.967397e-07, No Iterations 3
time step continuity errors : sum local = 8.868094e-08, global = -2.804059e-08, cumulative = 5.734119e-06
ExecutionTime = 6.54 s  ClockTime = 7 s

Time = 49

DILUPBiCGStab:  Solving for Ux, Initial residual = 0.0001112265, Final residual = 8.063001e-07, No Iterations 1
DILUPBiCGStab:  Solving for Uy, Initial residual = 0.000237347, Final residual = 1.749815e-06, No Iterations 1
DILUPBiCGStab:  Solving for Uz, Initial residual = 0.0002373833, Final residual = 1.750337e-06, No Iterations 1
GAMG:  Solving for p, Initial residual = 0.003048634, Final residual = 1.081692e-05, No Iterations 3
GAMG:  Solving for p, Initial residual = 1.083486e-05, Final residual = 4.036092e-07, No Iterations 3
time step continuity errors : sum local = 7.188147e-08, global = -2.382027e-08, cumulative = 5.710299e-06
ExecutionTime = 6.66 s  ClockTime = 7 s

Time = 50

DILUPBiCGStab:  Solving for Ux, Initial residual = 9.64035e-05, Final residual = 7.067495e-07, No Iterations 1
DILUPBiCGStab:  Solving for Uy, Initial residual = 0.000206263, Final residual = 1.552718e-06, No Iterations 1
DILUPBiCGStab:  Solving for Uz, Initial residual = 0.0002062817, Final residual = 1.552978e-06, No Iterations 1
GAMG:  Solving for p, Initial residual = 0.002476877, Final residual = 8.699763e-06, No Iterations 3
GAMG:  Solving for p, Initial residual = 8.710948e-06, Final residual = 9.839118e-07, No Iterations 2
time step continuity errors : sum local = 1.749023e-07, global = -4.958885e-08, cumulative = 5.66071e-06
ExecutionTime = 6.84 s  ClockTime = 7 s

Time = 51

DILUPBiCGStab:  Solving for Ux, Initial residual = 8.294821e-05, Final residual = 6.052922e-07, No Iterations 1
DILUPBiCGStab:  Solving for Uy, Initial residual = 0.0001789894, Final residual = 1.345538e-06, No Iterations 1
DILUPBiCGStab:  Solving for Uz, Initial residual = 0.0001789775, Final residual = 1.34542e-06, No Iterations 1
GAMG:  Solving for p, Initial residual = 0.002014597, Final residual = 7.045619e-06, No Iterations 3
GAMG:  Solving for p, Initial residual = 7.052751e-06, Final residual = 8.001028e-07, No Iterations 2
time step continuity errors : sum local = 1.420164e-07, global = -4.220079e-08, cumulative = 5.618509e-06
ExecutionTime = 6.96 s  ClockTime = 7 s

Time = 52

DILUPBiCGStab:  Solving for Ux, Initial residual = 7.105952e-05, Final residual = 5.09833e-07, No Iterations 1
DILUPBiCGStab:  Solving for Uy, Initial residual = 0.0001537375, Final residual = 1.131652e-06, No Iterations 1
DILUPBiCGStab:  Solving for Uz, Initial residual = 0.000153742, Final residual = 1.131709e-06, No Iterations 1
GAMG:  Solving for p, Initial residual = 0.001641183, Final residual = 5.681762e-06, No Iterations 3
GAMG:  Solving for p, Initial residual = 5.686314e-06, Final residual = 6.481518e-07, No Iterations 2
time step continuity errors : sum local = 1.149092e-07, global = -3.535311e-08, cumulative = 5.583156e-06
ExecutionTime = 7.06 s  ClockTime = 7 s

Time = 53

DILUPBiCGStab:  Solving for Ux, Initial residual = 6.04963e-05, Final residual = 4.253212e-07, No Iterations 1
DILUPBiCGStab:  Solving for Uy, Initial residual = 0.0001305859, Final residual = 9.363659e-07, No Iterations 1
DILUPBiCGStab:  Solving for Uz, Initial residual = 0.0001305966, Final residual = 9.365195e-07, No Iterations 1
GAMG:  Solving for p, Initial residual = 0.001338973, Final residual = 4.578763e-06, No Iterations 3
GAMG:  Solving for p, Initial residual = 4.581683e-06, Final residual = 5.235297e-07, No Iterations 2
time step continuity errors : sum local = 9.27273e-08, global = -2.937956e-08, cumulative = 5.553776e-06
ExecutionTime = 7.17 s  ClockTime = 7 s

Time = 54

DILUPBiCGStab:  Solving for Ux, Initial residual = 5.108083e-05, Final residual = 3.526243e-07, No Iterations 1
DILUPBiCGStab:  Solving for Uy, Initial residual = 0.0001098492, Final residual = 7.67072e-07, No Iterations 1
DILUPBiCGStab:  Solving for Uz, Initial residual = 0.0001098533, Final residual = 7.671597e-07, No Iterations 1
GAMG:  Solving for p, Initial residual = 0.001094413, Final residual = 3.693684e-06, No Iterations 3
GAMG:  Solving for p, Initial residual = 3.69557e-06, Final residual = 4.220297e-07, No Iterations 2
time step continuity errors : sum local = 7.469275e-08, global = -2.42849e-08, cumulative = 5.529492e-06
ExecutionTime = 7.27 s  ClockTime = 8 s

Time = 55

DILUPBiCGStab:  Solving for Ux, Initial residual = 4.280538e-05, Final residual = 2.892929e-07, No Iterations 1
DILUPBiCGStab:  Solving for Uy, Initial residual = 9.135786e-05, Final residual = 6.220818e-07, No Iterations 1
DILUPBiCGStab:  Solving for Uz, Initial residual = 9.135412e-05, Final residual = 6.220602e-07, No Iterations 1
GAMG:  Solving for p, Initial residual = 0.0008957891, Final residual = 2.982851e-06, No Iterations 3
GAMG:  Solving for p, Initial residual = 2.984088e-06, Final residual = 9.644012e-07, No Iterations 1
time step continuity errors : sum local = 1.705785e-07, global = -6.462282e-08, cumulative = 5.464869e-06
ExecutionTime = 7.37 s  ClockTime = 8 s

Time = 56

DILUPBiCGStab:  Solving for Ux, Initial residual = 3.55956e-05, Final residual = 2.356375e-07, No Iterations 1
DILUPBiCGStab:  Solving for Uy, Initial residual = 7.534701e-05, Final residual = 5.04754e-07, No Iterations 1
DILUPBiCGStab:  Solving for Uz, Initial residual = 7.534721e-05, Final residual = 5.044735e-07, No Iterations 1
GAMG:  Solving for p, Initial residual = 0.0007343577, Final residual = 2.455419e-06, No Iterations 3
GAMG:  Solving for p, Initial residual = 2.456271e-06, Final residual = 7.868955e-07, No Iterations 1
time step continuity errors : sum local = 1.391109e-07, global = -5.588618e-08, cumulative = 5.408983e-06
ExecutionTime = 7.47 s  ClockTime = 8 s

Time = 57

DILUPBiCGStab:  Solving for Ux, Initial residual = 2.925752e-05, Final residual = 1.902695e-07, No Iterations 1
DILUPBiCGStab:  Solving for Uy, Initial residual = 6.032015e-05, Final residual = 3.94319e-07, No Iterations 1
DILUPBiCGStab:  Solving for Uz, Initial residual = 6.032454e-05, Final residual = 3.942536e-07, No Iterations 1
GAMG:  Solving for p, Initial residual = 0.0006026505, Final residual = 1.994572e-06, No Iterations 3
GAMG:  Solving for p, Initial residual = 1.995157e-06, Final residual = 6.35563e-07, No Iterations 1
time step continuity errors : sum local = 1.123097e-07, global = -4.696987e-08, cumulative = 5.362013e-06
ExecutionTime = 7.57 s  ClockTime = 8 s

Time = 58

DILUPBiCGStab:  Solving for Ux, Initial residual = 2.366852e-05, Final residual = 1.523646e-07, No Iterations 1
DILUPBiCGStab:  Solving for Uy, Initial residual = 4.705806e-05, Final residual = 2.997231e-07, No Iterations 1
DILUPBiCGStab:  Solving for Uz, Initial residual = 4.706084e-05, Final residual = 2.997821e-07, No Iterations 1
GAMG:  Solving for p, Initial residual = 0.000494948, Final residual = 1.620805e-06, No Iterations 3
GAMG:  Solving for p, Initial residual = 1.62121e-06, Final residual = 5.155046e-07, No Iterations 1
time step continuity errors : sum local = 9.10617e-08, global = -3.898449e-08, cumulative = 5.323028e-06
ExecutionTime = 7.68 s  ClockTime = 8 s

Time = 59

DILUPBiCGStab:  Solving for Ux, Initial residual = 1.876176e-05, Final residual = 1.204957e-07, No Iterations 1
DILUPBiCGStab:  Solving for Uy, Initial residual = 3.593819e-05, Final residual = 2.216426e-07, No Iterations 1
DILUPBiCGStab:  Solving for Uz, Initial residual = 3.59375e-05, Final residual = 2.216611e-07, No Iterations 1
GAMG:  Solving for p, Initial residual = 0.0004065568, Final residual = 1.334156e-06, No Iterations 3
GAMG:  Solving for p, Initial residual = 1.334441e-06, Final residual = 4.251565e-07, No Iterations 1
time step continuity errors : sum local = 7.507943e-08, global = -3.244156e-08, cumulative = 5.290587e-06
ExecutionTime = 7.79 s  ClockTime = 8 s

Time = 60

DILUPBiCGStab:  Solving for Ux, Initial residual = 1.47201e-05, Final residual = 9.263054e-08, No Iterations 1
DILUPBiCGStab:  Solving for Uy, Initial residual = 2.693753e-05, Final residual = 1.580952e-07, No Iterations 1
DILUPBiCGStab:  Solving for Uz, Initial residual = 2.693759e-05, Final residual = 1.580371e-07, No Iterations 1
GAMG:  Solving for p, Initial residual = 0.0003338603, Final residual = 1.121262e-06, No Iterations 3
GAMG:  Solving for p, Initial residual = 1.121469e-06, Final residual = 3.577334e-07, No Iterations 1
time step continuity errors : sum local = 6.315687e-08, global = -2.74377e-08, cumulative = 5.263149e-06
ExecutionTime = 7.94 s  ClockTime = 8 s

Time = 61

DILUPBiCGStab:  Solving for Ux, Initial residual = 1.160636e-05, Final residual = 6.97165e-08, No Iterations 1
DILUPBiCGStab:  Solving for Uy, Initial residual = 1.986116e-05, Final residual = 1.081252e-07, No Iterations 1
DILUPBiCGStab:  Solving for Uz, Initial residual = 1.986218e-05, Final residual = 1.080477e-07, No Iterations 1
GAMG:  Solving for p, Initial residual = 0.0002739404, Final residual = 9.609805e-07, No Iterations 3
GAMG:  Solving for p, Initial residual = 9.611348e-07, Final residual = 9.611348e-07, No Iterations 0
time step continuity errors : sum local = 1.696488e-07, global = -6.123967e-08, cumulative = 5.201909e-06
ExecutionTime = 8.05 s  ClockTime = 8 s

Time = 62

DILUPBiCGStab:  Solving for Ux, Initial residual = 9.513593e-06, Final residual = 5.436122e-08, No Iterations 1
DILUPBiCGStab:  Solving for Uy, Initial residual = 1.477254e-05, Final residual = 7.615186e-08, No Iterations 1
DILUPBiCGStab:  Solving for Uz, Initial residual = 1.477365e-05, Final residual = 7.622701e-08, No Iterations 1
GAMG:  Solving for p, Initial residual = 0.0002246709, Final residual = 8.756696e-07, No Iterations 3
GAMG:  Solving for p, Initial residual = 8.757944e-07, Final residual = 8.757944e-07, No Iterations 0
time step continuity errors : sum local = 1.545569e-07, global = -5.574077e-08, cumulative = 5.146169e-06
ExecutionTime = 8.15 s  ClockTime = 8 s

Time = 63

DILUPBiCGStab:  Solving for Ux, Initial residual = 8.12127e-06, Final residual = 4.62194e-08, No Iterations 1
DILUPBiCGStab:  Solving for Uy, Initial residual = 1.160435e-05, Final residual = 6.262284e-08, No Iterations 1
DILUPBiCGStab:  Solving for Uz, Initial residual = 1.160617e-05, Final residual = 6.268489e-08, No Iterations 1
GAMG:  Solving for p, Initial residual = 0.0001840668, Final residual = 7.71239e-07, No Iterations 3
GAMG:  Solving for p, Initial residual = 7.713336e-07, Final residual = 7.713336e-07, No Iterations 0
time step continuity errors : sum local = 1.361009e-07, global = -4.545273e-08, cumulative = 5.100716e-06
ExecutionTime = 8.25 s  ClockTime = 9 s

Time = 64

DILUPBiCGStab:  Solving for Ux, Initial residual = 7.281081e-06, Final residual = 4.252791e-08, No Iterations 1
DILUPBiCGStab:  Solving for Uy, Initial residual = 1.064273e-05, Final residual = 6.97123e-08, No Iterations 1
DILUPBiCGStab:  Solving for Uz, Initial residual = 1.063785e-05, Final residual = 6.962809e-08, No Iterations 1
GAMG:  Solving for p, Initial residual = 0.0001507765, Final residual = 6.645878e-07, No Iterations 3
GAMG:  Solving for p, Initial residual = 6.646563e-07, Final residual = 6.646563e-07, No Iterations 0
time step continuity errors : sum local = 1.172627e-07, global = -3.391525e-08, cumulative = 5.066801e-06
ExecutionTime = 8.34 s  ClockTime = 9 s

Time = 65

DILUPBiCGStab:  Solving for Ux, Initial residual = 6.777512e-06, Final residual = 4.106807e-08, No Iterations 1
DILUPBiCGStab:  Solving for Uy, Initial residual = 1.073347e-05, Final residual = 7.965605e-08, No Iterations 1
DILUPBiCGStab:  Solving for Uz, Initial residual = 1.072697e-05, Final residual = 7.953004e-08, No Iterations 1
GAMG:  Solving for p, Initial residual = 0.0001236369, Final residual = 5.679858e-07, No Iterations 3
GAMG:  Solving for p, Initial residual = 5.68034e-07, Final residual = 5.68034e-07, No Iterations 0
time step continuity errors : sum local = 1.002055e-07, global = -2.398083e-08, cumulative = 5.04282e-06
ExecutionTime = 8.44 s  ClockTime = 9 s

Time = 66

DILUPBiCGStab:  Solving for Ux, Initial residual = 6.25779e-06, Final residual = 3.936898e-08, No Iterations 1
DILUPBiCGStab:  Solving for Uy, Initial residual = 1.086974e-05, Final residual = 8.191686e-08, No Iterations 1
DILUPBiCGStab:  Solving for Uz, Initial residual = 1.086761e-05, Final residual = 8.183593e-08, No Iterations 1
GAMG:  Solving for p, Initial residual = 0.0001015844, Final residual = 4.828974e-07, No Iterations 3
GAMG:  Solving for p, Initial residual = 4.829306e-07, Final residual = 4.829306e-07, No Iterations 0
time step continuity errors : sum local = 8.518541e-08, global = -1.652099e-08, cumulative = 5.026299e-06
ExecutionTime = 8.53 s  ClockTime = 9 s

Time = 67

DILUPBiCGStab:  Solving for Ux, Initial residual = 5.662157e-06, Final residual = 3.660366e-08, No Iterations 1
DILUPBiCGStab:  Solving for Uy, Initial residual = 1.062421e-05, Final residual = 7.849418e-08, No Iterations 1
DILUPBiCGStab:  Solving for Uz, Initial residual = 1.062614e-05, Final residual = 7.847062e-08, No Iterations 1
GAMG:  Solving for p, Initial residual = 8.374914e-05, Final residual = 9.751494e-07, No Iterations 2
GAMG:  Solving for p, Initial residual = 9.751987e-07, Final residual = 9.751987e-07, No Iterations 0
time step continuity errors : sum local = 1.720071e-07, global = -1.097829e-07, cumulative = 4.916516e-06
ExecutionTime = 8.62 s  ClockTime = 9 s


SIMPLE solution converged in 67 iterations

End

/*---------------------------------------------------------------------------*\
| =========                 |                                                 |
| \\      /  F ield         | OpenFOAM: The Open Source CFD Toolbox           |
|  \\    /   O peration     | Version:  2106                                  |
|   \\  /    A nd           | Website:  www.openfoam.com                      |
|    \\/     M anipulation  |                                                 |
\*---------------------------------------------------------------------------*/
Build  : _f815a12b-20210902 OPENFOAM=2106
Arch   : "LSB;label=32;scalar=64"
Exec   : simpleFoam
Date   : Jan 02 2022
Time   : 15:51:04
Host   : ServaasComputer
PID    : 12345
I/O    : uncollated
Case   : /home/servaas/OpenFOAM/servaas-v2106/porosityCoeff/porosityCoeff
nProcs : 1
trapFpe: Floating point exception trapping enabled (FOAM_SIGFPE).
fileModificationChecking : Monitoring run-time modified files using timeStampMaster (fileModificationSkew 5, maxFileModificationPolls 20)
allowSystemOperations : Allowing user-supplied system call operations

// * * * * * * * * * * * * * * * * * * * * * * * * * * * * * * * * * * * * * //
Create time

Overriding OptimisationSwitches according to controlDict
    fileHandler (unregistered)
    fileModificationSkew 0;

    maxMasterFileBufferSize 1e+09;

    maxThreadFileBufferSize 1e+09;

    mpiBufferSize (unregistered)
Create mesh for time = 0


SIMPLE: convergence criteria
    field p	 tolerance 0.0001
    field U	 tolerance 0.0001

Reading field p

Reading field U

Reading/calculating face flux field phi

Selecting incompressible transport model Newtonian
Selecting turbulence model type laminar
Selecting laminar stress model Stokes
Creating MRF zone list from MRFProperties
Creating finite volume options from "system/fvOptions"

Selecting finite volume options type explicitPorositySource
    Source: porosityInbox_1
    - selecting cells using cellZone box_1
    - selected 8000 cell(s) with volume 0.1287876
Porosity region porosityInbox_1:
    selecting model: DarcyForchheimer
    creating porous zone: box_1
    origin: (0 0 0) e1: (1 0 0) e2: (0 1 0)
    local bounds: (0.505 0.505 0.505)


Starting time loop

Time = 1

DILUPBiCGStab:  Solving for Ux, Initial residual = 1, Final residual = 0.0004569065, No Iterations 1
DILUPBiCGStab:  Solving for Uy, Initial residual = 0.9999842, Final residual = 0.0003484122, No Iterations 1
DILUPBiCGStab:  Solving for Uz, Initial residual = 0.9999815, Final residual = 0.0003562946, No Iterations 1
GAMG:  Solving for p, Initial residual = 1, Final residual = 0.005981457, No Iterations 5
GAMG:  Solving for p, Initial residual = 0.0004980602, Final residual = 2.014505e-06, No Iterations 5
time step continuity errors : sum local = 2.330456e-05, global = -1.484515e-05, cumulative = -1.484515e-05
ExecutionTime = 0.24 s  ClockTime = 0 s

Time = 2

DILUPBiCGStab:  Solving for Ux, Initial residual = 0.2811781, Final residual = 0.02656555, No Iterations 1
DILUPBiCGStab:  Solving for Uy, Initial residual = 0.2047707, Final residual = 0.004680711, No Iterations 1
DILUPBiCGStab:  Solving for Uz, Initial residual = 0.2047709, Final residual = 0.004680706, No Iterations 1
GAMG:  Solving for p, Initial residual = 0.9303956, Final residual = 0.006874556, No Iterations 5
GAMG:  Solving for p, Initial residual = 0.0005752415, Final residual = 4.550251e-06, No Iterations 5
time step continuity errors : sum local = 3.433201e-05, global = -2.506462e-05, cumulative = -3.990976e-05
ExecutionTime = 0.39 s  ClockTime = 0 s

Time = 3

DILUPBiCGStab:  Solving for Ux, Initial residual = 0.2142371, Final residual = 0.005751803, No Iterations 1
DILUPBiCGStab:  Solving for Uy, Initial residual = 0.1254087, Final residual = 0.002984823, No Iterations 1
DILUPBiCGStab:  Solving for Uz, Initial residual = 0.1254087, Final residual = 0.002984822, No Iterations 1
GAMG:  Solving for p, Initial residual = 0.0314108, Final residual = 0.0002730673, No Iterations 3
GAMG:  Solving for p, Initial residual = 0.0004272108, Final residual = 1.996899e-06, No Iterations 4
time step continuity errors : sum local = 1.376389e-05, global = 7.994459e-06, cumulative = -3.191531e-05
ExecutionTime = 0.53 s  ClockTime = 0 s

Time = 4

DILUPBiCGStab:  Solving for Ux, Initial residual = 0.1529601, Final residual = 0.003918699, No Iterations 1
DILUPBiCGStab:  Solving for Uy, Initial residual = 0.09180277, Final residual = 0.002237929, No Iterations 1
DILUPBiCGStab:  Solving for Uz, Initial residual = 0.09180302, Final residual = 0.002237941, No Iterations 1
GAMG:  Solving for p, Initial residual = 0.04343477, Final residual = 0.0001457918, No Iterations 4
GAMG:  Solving for p, Initial residual = 0.0003828231, Final residual = 1.408879e-06, No Iterations 5
time step continuity errors : sum local = 3.423284e-06, global = 2.07101e-06, cumulative = -2.98443e-05
ExecutionTime = 0.69 s  ClockTime = 0 s

Time = 5

DILUPBiCGStab:  Solving for Ux, Initial residual = 0.1150042, Final residual = 0.002764878, No Iterations 1
DILUPBiCGStab:  Solving for Uy, Initial residual = 0.09759943, Final residual = 0.002340225, No Iterations 1
DILUPBiCGStab:  Solving for Uz, Initial residual = 0.09759978, Final residual = 0.002340234, No Iterations 1
GAMG:  Solving for p, Initial residual = 0.07331064, Final residual = 0.0006959375, No Iterations 3
GAMG:  Solving for p, Initial residual = 0.00118151, Final residual = 4.105749e-06, No Iterations 5
time step continuity errors : sum local = 6.495106e-06, global = 4.034121e-06, cumulative = -2.581018e-05
ExecutionTime = 0.86 s  ClockTime = 0 s

Time = 6

DILUPBiCGStab:  Solving for Ux, Initial residual = 0.09606708, Final residual = 0.002245484, No Iterations 1
DILUPBiCGStab:  Solving for Uy, Initial residual = 0.1021845, Final residual = 0.002300644, No Iterations 1
DILUPBiCGStab:  Solving for Uz, Initial residual = 0.1021848, Final residual = 0.002300649, No Iterations 1
GAMG:  Solving for p, Initial residual = 0.1191712, Final residual = 0.0007312348, No Iterations 3
GAMG:  Solving for p, Initial residual = 0.0007419997, Final residual = 2.567348e-06, No Iterations 5
time step continuity errors : sum local = 4.324207e-06, global = 2.889991e-06, cumulative = -2.292018e-05
ExecutionTime = 1.03 s  ClockTime = 1 s

Time = 7

DILUPBiCGStab:  Solving for Ux, Initial residual = 0.08870268, Final residual = 0.002099999, No Iterations 1
DILUPBiCGStab:  Solving for Uy, Initial residual = 0.0919711, Final residual = 0.001969084, No Iterations 1
DILUPBiCGStab:  Solving for Uz, Initial residual = 0.09197136, Final residual = 0.001969089, No Iterations 1
GAMG:  Solving for p, Initial residual = 0.1324229, Final residual = 0.0008820335, No Iterations 3
GAMG:  Solving for p, Initial residual = 0.000825684, Final residual = 5.908785e-06, No Iterations 4
time step continuity errors : sum local = 1.003255e-05, global = 4.765567e-06, cumulative = -1.815462e-05
ExecutionTime = 1.16 s  ClockTime = 1 s

Time = 8

DILUPBiCGStab:  Solving for Ux, Initial residual = 0.08799352, Final residual = 0.00202394, No Iterations 1
DILUPBiCGStab:  Solving for Uy, Initial residual = 0.08010739, Final residual = 0.001626201, No Iterations 1
DILUPBiCGStab:  Solving for Uz, Initial residual = 0.08010779, Final residual = 0.001626213, No Iterations 1
GAMG:  Solving for p, Initial residual = 0.1340895, Final residual = 0.0009107205, No Iterations 3
GAMG:  Solving for p, Initial residual = 0.0009131113, Final residual = 8.669482e-06, No Iterations 4
time step continuity errors : sum local = 1.413007e-05, global = 1.002971e-05, cumulative = -8.124904e-06
ExecutionTime = 1.29 s  ClockTime = 1 s

Time = 9

DILUPBiCGStab:  Solving for Ux, Initial residual = 0.08699851, Final residual = 0.0018837, No Iterations 1
DILUPBiCGStab:  Solving for Uy, Initial residual = 0.07330264, Final residual = 0.001417352, No Iterations 1
DILUPBiCGStab:  Solving for Uz, Initial residual = 0.07330277, Final residual = 0.001417354, No Iterations 1
GAMG:  Solving for p, Initial residual = 0.1407505, Final residual = 0.00114254, No Iterations 3
GAMG:  Solving for p, Initial residual = 0.001195176, Final residual = 4.065467e-06, No Iterations 5
time step continuity errors : sum local = 5.806639e-06, global = 3.99399e-06, cumulative = -4.130914e-06
ExecutionTime = 1.43 s  ClockTime = 1 s

Time = 10

DILUPBiCGStab:  Solving for Ux, Initial residual = 0.08678719, Final residual = 0.001734349, No Iterations 1
DILUPBiCGStab:  Solving for Uy, Initial residual = 0.07003014, Final residual = 0.001293404, No Iterations 1
DILUPBiCGStab:  Solving for Uz, Initial residual = 0.07002994, Final residual = 0.001293397, No Iterations 1
GAMG:  Solving for p, Initial residual = 0.1551774, Final residual = 0.00130956, No Iterations 3
GAMG:  Solving for p, Initial residual = 0.001352143, Final residual = 4.562915e-06, No Iterations 5
time step continuity errors : sum local = 6.029018e-06, global = 4.009519e-06, cumulative = -1.213952e-07
ExecutionTime = 1.57 s  ClockTime = 1 s

Time = 11

DILUPBiCGStab:  Solving for Ux, Initial residual = 0.08652684, Final residual = 0.001598204, No Iterations 1
DILUPBiCGStab:  Solving for Uy, Initial residual = 0.06924668, Final residual = 0.001211073, No Iterations 1
DILUPBiCGStab:  Solving for Uz, Initial residual = 0.06924645, Final residual = 0.001211066, No Iterations 1
GAMG:  Solving for p, Initial residual = 0.1624076, Final residual = 0.001327774, No Iterations 3
GAMG:  Solving for p, Initial residual = 0.001316019, Final residual = 4.412277e-06, No Iterations 5
time step continuity errors : sum local = 5.691888e-06, global = 3.68008e-06, cumulative = 3.558685e-06
ExecutionTime = 1.71 s  ClockTime = 1 s

Time = 12

DILUPBiCGStab:  Solving for Ux, Initial residual = 0.08785388, Final residual = 0.001487132, No Iterations 1
DILUPBiCGStab:  Solving for Uy, Initial residual = 0.06997548, Final residual = 0.001144654, No Iterations 1
DILUPBiCGStab:  Solving for Uz, Initial residual = 0.06997538, Final residual = 0.001144651, No Iterations 1
GAMG:  Solving for p, Initial residual = 0.1611031, Final residual = 0.001239907, No Iterations 3
GAMG:  Solving for p, Initial residual = 0.001177932, Final residual = 3.921909e-06, No Iterations 5
time step continuity errors : sum local = 5.173085e-06, global = 3.231274e-06, cumulative = 6.789959e-06
ExecutionTime = 1.84 s  ClockTime = 1 s

Time = 13

DILUPBiCGStab:  Solving for Ux, Initial residual = 0.09012876, Final residual = 0.001380203, No Iterations 1
DILUPBiCGStab:  Solving for Uy, Initial residual = 0.07187657, Final residual = 0.001089642, No Iterations 1
DILUPBiCGStab:  Solving for Uz, Initial residual = 0.07187655, Final residual = 0.001089641, No Iterations 1
GAMG:  Solving for p, Initial residual = 0.1507396, Final residual = 0.001106154, No Iterations 3
GAMG:  Solving for p, Initial residual = 0.001011693, Final residual = 3.34986e-06, No Iterations 5
time step continuity errors : sum local = 4.720114e-06, global = 2.830071e-06, cumulative = 9.62003e-06
ExecutionTime = 1.96 s  ClockTime = 2 s

Time = 14

DILUPBiCGStab:  Solving for Ux, Initial residual = 0.09350621, Final residual = 0.001263036, No Iterations 1
DILUPBiCGStab:  Solving for Uy, Initial residual = 0.07516367, Final residual = 0.001042688, No Iterations 1
DILUPBiCGStab:  Solving for Uz, Initial residual = 0.07516367, Final residual = 0.001042687, No Iterations 1
GAMG:  Solving for p, Initial residual = 0.1348207, Final residual = 0.0009535354, No Iterations 3
GAMG:  Solving for p, Initial residual = 0.0008685932, Final residual = 2.852684e-06, No Iterations 5
time step continuity errors : sum local = 4.314598e-06, global = 2.487981e-06, cumulative = 1.210801e-05
ExecutionTime = 2.09 s  ClockTime = 2 s

Time = 15

DILUPBiCGStab:  Solving for Ux, Initial residual = 0.09824923, Final residual = 0.001138252, No Iterations 1
DILUPBiCGStab:  Solving for Uy, Initial residual = 0.08018016, Final residual = 0.0009957645, No Iterations 1
DILUPBiCGStab:  Solving for Uz, Initial residual = 0.08018011, Final residual = 0.000995763, No Iterations 1
GAMG:  Solving for p, Initial residual = 0.1184848, Final residual = 0.0008119546, No Iterations 3
GAMG:  Solving for p, Initial residual = 0.0007552892, Final residual = 2.448656e-06, No Iterations 5
time step continuity errors : sum local = 3.862364e-06, global = 2.12521e-06, cumulative = 1.423322e-05
ExecutionTime = 2.22 s  ClockTime = 2 s

Time = 16

DILUPBiCGStab:  Solving for Ux, Initial residual = 0.1041024, Final residual = 0.0100117, No Iterations 1
DILUPBiCGStab:  Solving for Uy, Initial residual = 0.0871162, Final residual = 0.008275634, No Iterations 1
DILUPBiCGStab:  Solving for Uz, Initial residual = 0.08711607, Final residual = 0.008275619, No Iterations 1
GAMG:  Solving for p, Initial residual = 0.105305, Final residual = 0.0007205146, No Iterations 3
GAMG:  Solving for p, Initial residual = 0.000680234, Final residual = 2.186571e-06, No Iterations 5
time step continuity errors : sum local = 3.519585e-06, global = 1.87229e-06, cumulative = 1.610551e-05
ExecutionTime = 2.35 s  ClockTime = 2 s

Time = 17

DILUPBiCGStab:  Solving for Ux, Initial residual = 0.1107047, Final residual = 0.009652681, No Iterations 1
DILUPBiCGStab:  Solving for Uy, Initial residual = 0.09790779, Final residual = 0.008672816, No Iterations 1
DILUPBiCGStab:  Solving for Uz, Initial residual = 0.09790758, Final residual = 0.008672797, No Iterations 1
GAMG:  Solving for p, Initial residual = 0.0944676, Final residual = 0.0005945701, No Iterations 3
GAMG:  Solving for p, Initial residual = 0.0005768475, Final residual = 5.471677e-06, No Iterations 4
time step continuity errors : sum local = 8.68832e-06, global = 3.663641e-06, cumulative = 1.976915e-05
ExecutionTime = 2.46 s  ClockTime = 2 s

Time = 18

DILUPBiCGStab:  Solving for Ux, Initial residual = 0.1169393, Final residual = 0.009037247, No Iterations 1
DILUPBiCGStab:  Solving for Uy, Initial residual = 0.110205, Final residual = 0.008865093, No Iterations 1
DILUPBiCGStab:  Solving for Uz, Initial residual = 0.1102047, Final residual = 0.008865068, No Iterations 1
GAMG:  Solving for p, Initial residual = 0.08652144, Final residual = 0.0005146857, No Iterations 3
GAMG:  Solving for p, Initial residual = 0.0005121061, Final residual = 3.845148e-06, No Iterations 4
time step continuity errors : sum local = 5.860005e-06, global = 2.208589e-06, cumulative = 2.197774e-05
ExecutionTime = 2.57 s  ClockTime = 2 s

Time = 19

DILUPBiCGStab:  Solving for Ux, Initial residual = 0.1211257, Final residual = 0.008074327, No Iterations 1
DILUPBiCGStab:  Solving for Uy, Initial residual = 0.1229711, Final residual = 0.008716099, No Iterations 1
DILUPBiCGStab:  Solving for Uz, Initial residual = 0.1229706, Final residual = 0.008716063, No Iterations 1
GAMG:  Solving for p, Initial residual = 0.08169465, Final residual = 0.0004770543, No Iterations 3
GAMG:  Solving for p, Initial residual = 0.0004846519, Final residual = 4.423101e-06, No Iterations 4
time step continuity errors : sum local = 6.323216e-06, global = -2.568231e-06, cumulative = 1.940951e-05
ExecutionTime = 2.7 s  ClockTime = 2 s

Time = 20

DILUPBiCGStab:  Solving for Ux, Initial residual = 0.120936, Final residual = 0.006781555, No Iterations 1
DILUPBiCGStab:  Solving for Uy, Initial residual = 0.1348249, Final residual = 0.008109063, No Iterations 1
DILUPBiCGStab:  Solving for Uz, Initial residual = 0.1348239, Final residual = 0.008109018, No Iterations 1
GAMG:  Solving for p, Initial residual = 0.08184558, Final residual = 0.0004626133, No Iterations 3
GAMG:  Solving for p, Initial residual = 0.000479703, Final residual = 4.410092e-06, No Iterations 4
time step continuity errors : sum local = 5.778043e-06, global = -2.620403e-06, cumulative = 1.678911e-05
ExecutionTime = 2.8 s  ClockTime = 2 s

Time = 21

DILUPBiCGStab:  Solving for Ux, Initial residual = 0.1135508, Final residual = 0.005319133, No Iterations 1
DILUPBiCGStab:  Solving for Uy, Initial residual = 0.1421013, Final residual = 0.006959645, No Iterations 1
DILUPBiCGStab:  Solving for Uz, Initial residual = 0.1421009, Final residual = 0.006959627, No Iterations 1
GAMG:  Solving for p, Initial residual = 0.08749272, Final residual = 0.0005014636, No Iterations 3
GAMG:  Solving for p, Initial residual = 0.0005302431, Final residual = 5.022997e-06, No Iterations 4
time step continuity errors : sum local = 5.911955e-06, global = -2.626304e-06, cumulative = 1.41628e-05
ExecutionTime = 2.93 s  ClockTime = 3 s

Time = 22

DILUPBiCGStab:  Solving for Ux, Initial residual = 0.09745469, Final residual = 0.003909555, No Iterations 1
DILUPBiCGStab:  Solving for Uy, Initial residual = 0.1385116, Final residual = 0.005370238, No Iterations 1
DILUPBiCGStab:  Solving for Uz, Initial residual = 0.1385115, Final residual = 0.005370213, No Iterations 1
GAMG:  Solving for p, Initial residual = 0.0949251, Final residual = 0.0005626738, No Iterations 3
GAMG:  Solving for p, Initial residual = 0.0006053148, Final residual = 5.927126e-06, No Iterations 4
time step continuity errors : sum local = 6.160277e-06, global = -2.713316e-06, cumulative = 1.144949e-05
ExecutionTime = 3.07 s  ClockTime = 3 s

Time = 23

DILUPBiCGStab:  Solving for Ux, Initial residual = 0.07588336, Final residual = 0.002649642, No Iterations 1
DILUPBiCGStab:  Solving for Uy, Initial residual = 0.1195711, Final residual = 0.003687799, No Iterations 1
DILUPBiCGStab:  Solving for Uz, Initial residual = 0.1195707, Final residual = 0.003687771, No Iterations 1
GAMG:  Solving for p, Initial residual = 0.1008473, Final residual = 0.0006198045, No Iterations 3
GAMG:  Solving for p, Initial residual = 0.0006763621, Final residual = 2.244459e-06, No Iterations 5
time step continuity errors : sum local = 2.032813e-06, global = -8.548781e-07, cumulative = 1.059461e-05
ExecutionTime = 3.19 s  ClockTime = 3 s

Time = 24

DILUPBiCGStab:  Solving for Ux, Initial residual = 0.05398466, Final residual = 0.001609381, No Iterations 1
DILUPBiCGStab:  Solving for Uy, Initial residual = 0.09087387, Final residual = 0.002303531, No Iterations 1
DILUPBiCGStab:  Solving for Uz, Initial residual = 0.09087447, Final residual = 0.002303536, No Iterations 1
GAMG:  Solving for p, Initial residual = 0.1041936, Final residual = 0.0006588257, No Iterations 3
GAMG:  Solving for p, Initial residual = 0.0007263076, Final residual = 2.481334e-06, No Iterations 5
time step continuity errors : sum local = 1.941984e-06, global = -8.074895e-07, cumulative = 9.787119e-06
ExecutionTime = 3.34 s  ClockTime = 3 s

Time = 25

DILUPBiCGStab:  Solving for Ux, Initial residual = 0.03666497, Final residual = 0.0008561271, No Iterations 1
DILUPBiCGStab:  Solving for Uy, Initial residual = 0.06344076, Final residual = 0.001314956, No Iterations 1
DILUPBiCGStab:  Solving for Uz, Initial residual = 0.06344086, Final residual = 0.001314958, No Iterations 1
GAMG:  Solving for p, Initial residual = 0.1046597, Final residual = 0.0006741064, No Iterations 3
GAMG:  Solving for p, Initial residual = 0.0007484411, Final residual = 2.616667e-06, No Iterations 5
time step continuity errors : sum local = 1.757564e-06, global = -7.246358e-07, cumulative = 9.062484e-06
ExecutionTime = 3.48 s  ClockTime = 3 s

Time = 26

DILUPBiCGStab:  Solving for Ux, Initial residual = 0.02506252, Final residual = 0.0004245132, No Iterations 1
DILUPBiCGStab:  Solving for Uy, Initial residual = 0.04468066, Final residual = 0.0007249567, No Iterations 1
DILUPBiCGStab:  Solving for Uz, Initial residual = 0.04468071, Final residual = 0.0007249579, No Iterations 1
GAMG:  Solving for p, Initial residual = 0.1030934, Final residual = 0.0006660156, No Iterations 3
GAMG:  Solving for p, Initial residual = 0.0007406161, Final residual = 2.637393e-06, No Iterations 5
time step continuity errors : sum local = 1.523305e-06, global = -6.233449e-07, cumulative = 8.439139e-06
ExecutionTime = 3.61 s  ClockTime = 3 s

Time = 27

DILUPBiCGStab:  Solving for Ux, Initial residual = 0.01785768, Final residual = 0.0002065033, No Iterations 1
DILUPBiCGStab:  Solving for Uy, Initial residual = 0.0344099, Final residual = 0.0003908978, No Iterations 1
DILUPBiCGStab:  Solving for Uz, Initial residual = 0.03440995, Final residual = 0.000390899, No Iterations 1
GAMG:  Solving for p, Initial residual = 0.0998874, Final residual = 0.0006399313, No Iterations 3
GAMG:  Solving for p, Initial residual = 0.000711161, Final residual = 2.572805e-06, No Iterations 5
time step continuity errors : sum local = 1.28168e-06, global = -5.213105e-07, cumulative = 7.917828e-06
ExecutionTime = 3.73 s  ClockTime = 3 s

Time = 28

DILUPBiCGStab:  Solving for Ux, Initial residual = 0.01361212, Final residual = 0.000104619, No Iterations 1
DILUPBiCGStab:  Solving for Uy, Initial residual = 0.02906969, Final residual = 0.0002163847, No Iterations 1
DILUPBiCGStab:  Solving for Uz, Initial residual = 0.02906967, Final residual = 0.0002163851, No Iterations 1
GAMG:  Solving for p, Initial residual = 0.09493564, Final residual = 0.0006011515, No Iterations 3
GAMG:  Solving for p, Initial residual = 0.0006654384, Final residual = 2.436523e-06, No Iterations 5
time step continuity errors : sum local = 1.055826e-06, global = -4.274289e-07, cumulative = 7.490399e-06
ExecutionTime = 3.85 s  ClockTime = 3 s

Time = 29

DILUPBiCGStab:  Solving for Ux, Initial residual = 0.01105791, Final residual = 6.201335e-05, No Iterations 1
DILUPBiCGStab:  Solving for Uy, Initial residual = 0.02540375, Final residual = 0.000147779, No Iterations 1
DILUPBiCGStab:  Solving for Uz, Initial residual = 0.02540368, Final residual = 0.000147779, No Iterations 1
GAMG:  Solving for p, Initial residual = 0.08865494, Final residual = 0.0005528401, No Iterations 3
GAMG:  Solving for p, Initial residual = 0.0006064744, Final residual = 2.233913e-06, No Iterations 5
time step continuity errors : sum local = 8.53689e-07, global = -3.444309e-07, cumulative = 7.145968e-06
ExecutionTime = 3.99 s  ClockTime = 4 s

Time = 30

DILUPBiCGStab:  Solving for Ux, Initial residual = 0.009180374, Final residual = 4.472746e-05, No Iterations 1
DILUPBiCGStab:  Solving for Uy, Initial residual = 0.02211474, Final residual = 0.0001245936, No Iterations 1
DILUPBiCGStab:  Solving for Uz, Initial residual = 0.02211467, Final residual = 0.000124594, No Iterations 1
GAMG:  Solving for p, Initial residual = 0.08124434, Final residual = 0.0004936127, No Iterations 3
GAMG:  Solving for p, Initial residual = 0.0005367107, Final residual = 1.980017e-06, No Iterations 5
time step continuity errors : sum local = 6.754397e-07, global = -2.722645e-07, cumulative = 6.873704e-06
ExecutionTime = 4.12 s  ClockTime = 4 s

Time = 31

DILUPBiCGStab:  Solving for Ux, Initial residual = 0.007657494, Final residual = 3.61228e-05, No Iterations 1
DILUPBiCGStab:  Solving for Uy, Initial residual = 0.01914759, Final residual = 0.0001080264, No Iterations 1
DILUPBiCGStab:  Solving for Uz, Initial residual = 0.01914756, Final residual = 0.0001080274, No Iterations 1
GAMG:  Solving for p, Initial residual = 0.07336795, Final residual = 0.0004268444, No Iterations 3
GAMG:  Solving for p, Initial residual = 0.0004600636, Final residual = 1.688951e-06, No Iterations 5
time step continuity errors : sum local = 5.206633e-07, global = -2.108274e-07, cumulative = 6.662876e-06
ExecutionTime = 4.26 s  ClockTime = 4 s

Time = 32

DILUPBiCGStab:  Solving for Ux, Initial residual = 0.006388158, Final residual = 3.048336e-05, No Iterations 1
DILUPBiCGStab:  Solving for Uy, Initial residual = 0.01658841, Final residual = 9.341974e-05, No Iterations 1
DILUPBiCGStab:  Solving for Uz, Initial residual = 0.01658842, Final residual = 9.342101e-05, No Iterations 1
GAMG:  Solving for p, Initial residual = 0.06516563, Final residual = 0.0003601141, No Iterations 3
GAMG:  Solving for p, Initial residual = 0.0003848238, Final residual = 1.393751e-06, No Iterations 5
time step continuity errors : sum local = 3.927818e-07, global = -1.611832e-07, cumulative = 6.501693e-06
ExecutionTime = 4.4 s  ClockTime = 4 s

Time = 33

DILUPBiCGStab:  Solving for Ux, Initial residual = 0.005309036, Final residual = 2.608128e-05, No Iterations 1
DILUPBiCGStab:  Solving for Uy, Initial residual = 0.01425869, Final residual = 8.011493e-05, No Iterations 1
DILUPBiCGStab:  Solving for Uz, Initial residual = 0.01425873, Final residual = 8.011628e-05, No Iterations 1
GAMG:  Solving for p, Initial residual = 0.0570919, Final residual = 0.0003006903, No Iterations 3
GAMG:  Solving for p, Initial residual = 0.0003188046, Final residual = 1.133904e-06, No Iterations 5
time step continuity errors : sum local = 2.952277e-07, global = -1.238008e-07, cumulative = 6.377892e-06
ExecutionTime = 4.53 s  ClockTime = 4 s

Time = 34

DILUPBiCGStab:  Solving for Ux, Initial residual = 0.004368621, Final residual = 2.235792e-05, No Iterations 1
DILUPBiCGStab:  Solving for Uy, Initial residual = 0.01208424, Final residual = 6.806503e-05, No Iterations 1
DILUPBiCGStab:  Solving for Uz, Initial residual = 0.01208431, Final residual = 6.806638e-05, No Iterations 1
GAMG:  Solving for p, Initial residual = 0.04953142, Final residual = 0.0002510955, No Iterations 3
GAMG:  Solving for p, Initial residual = 0.0002641794, Final residual = 9.269827e-07, No Iterations 5
time step continuity errors : sum local = 2.252743e-07, global = -9.67585e-08, cumulative = 6.281134e-06
ExecutionTime = 4.65 s  ClockTime = 4 s

Time = 35

DILUPBiCGStab:  Solving for Ux, Initial residual = 0.003547851, Final residual = 1.891828e-05, No Iterations 1
DILUPBiCGStab:  Solving for Uy, Initial residual = 0.01003921, Final residual = 5.691119e-05, No Iterations 1
DILUPBiCGStab:  Solving for Uz, Initial residual = 0.0100393, Final residual = 5.691249e-05, No Iterations 1
GAMG:  Solving for p, Initial residual = 0.04262871, Final residual = 0.0002110674, No Iterations 3
GAMG:  Solving for p, Initial residual = 0.0002204416, Final residual = 7.723279e-07, No Iterations 5
time step continuity errors : sum local = 1.768975e-07, global = -7.739756e-08, cumulative = 6.203736e-06
ExecutionTime = 4.8 s  ClockTime = 4 s

Time = 36

DILUPBiCGStab:  Solving for Ux, Initial residual = 0.002838496, Final residual = 1.567379e-05, No Iterations 1
DILUPBiCGStab:  Solving for Uy, Initial residual = 0.00817176, Final residual = 4.660145e-05, No Iterations 1
DILUPBiCGStab:  Solving for Uz, Initial residual = 0.008171867, Final residual = 4.660267e-05, No Iterations 1
GAMG:  Solving for p, Initial residual = 0.0364713, Final residual = 0.0001784795, No Iterations 3
GAMG:  Solving for p, Initial residual = 0.0001851405, Final residual = 6.582285e-07, No Iterations 5
time step continuity errors : sum local = 1.433782e-07, global = -6.284466e-08, cumulative = 6.140892e-06
ExecutionTime = 4.94 s  ClockTime = 5 s

Time = 37

DILUPBiCGStab:  Solving for Ux, Initial residual = 0.002233157, Final residual = 1.268638e-05, No Iterations 1
DILUPBiCGStab:  Solving for Uy, Initial residual = 0.006504609, Final residual = 3.721467e-05, No Iterations 1
DILUPBiCGStab:  Solving for Uz, Initial residual = 0.006504721, Final residual = 3.721578e-05, No Iterations 1
GAMG:  Solving for p, Initial residual = 0.0310495, Final residual = 0.0001459821, No Iterations 3
GAMG:  Solving for p, Initial residual = 0.000150509, Final residual = 5.591131e-07, No Iterations 5
time step continuity errors : sum local = 1.167598e-07, global = -4.985194e-08, cumulative = 6.09104e-06
ExecutionTime = 5.06 s  ClockTime = 5 s

Time = 38

DILUPBiCGStab:  Solving for Ux, Initial residual = 0.001725393, Final residual = 1.000154e-05, No Iterations 1
DILUPBiCGStab:  Solving for Uy, Initial residual = 0.005052594, Final residual = 2.88747e-05, No Iterations 1
DILUPBiCGStab:  Solving for Uz, Initial residual = 0.005052702, Final residual = 2.88757e-05, No Iterations 1
GAMG:  Solving for p, Initial residual = 0.02627507, Final residual = 0.0001156656, No Iterations 3
GAMG:  Solving for p, Initial residual = 0.000118609, Final residual = 4.701725e-07, No Iterations 5
time step continuity errors : sum local = 9.481729e-08, global = -3.863777e-08, cumulative = 6.052402e-06
ExecutionTime = 5.16 s  ClockTime = 5 s

Time = 39

DILUPBiCGStab:  Solving for Ux, Initial residual = 0.001303291, Final residual = 7.685354e-06, No Iterations 1
DILUPBiCGStab:  Solving for Uy, Initial residual = 0.003824633, Final residual = 2.170083e-05, No Iterations 1
DILUPBiCGStab:  Solving for Uz, Initial residual = 0.003824728, Final residual = 2.170167e-05, No Iterations 1
GAMG:  Solving for p, Initial residual = 0.02211914, Final residual = 9.425155e-05, No Iterations 3
GAMG:  Solving for p, Initial residual = 9.619116e-05, Final residual = 3.986515e-07, No Iterations 5
time step continuity errors : sum local = 7.813888e-08, global = -3.071197e-08, cumulative = 6.02169e-06
ExecutionTime = 5.31 s  ClockTime = 5 s

Time = 40

DILUPBiCGStab:  Solving for Ux, Initial residual = 0.0009620992, Final residual = 5.722241e-06, No Iterations 1
DILUPBiCGStab:  Solving for Uy, Initial residual = 0.002816519, Final residual = 1.576642e-05, No Iterations 1
DILUPBiCGStab:  Solving for Uz, Initial residual = 0.002816598, Final residual = 1.576708e-05, No Iterations 1
GAMG:  Solving for p, Initial residual = 0.01852526, Final residual = 7.772887e-05, No Iterations 3
GAMG:  Solving for p, Initial residual = 7.900274e-05, Final residual = 9.984411e-07, No Iterations 4
time step continuity errors : sum local = 1.912873e-07, global = -6.711077e-08, cumulative = 5.954579e-06
ExecutionTime = 5.45 s  ClockTime = 5 s

Time = 41

DILUPBiCGStab:  Solving for Ux, Initial residual = 0.0006931542, Final residual = 4.142743e-06, No Iterations 1
DILUPBiCGStab:  Solving for Uy, Initial residual = 0.002013222, Final residual = 1.107126e-05, No Iterations 1
DILUPBiCGStab:  Solving for Uz, Initial residual = 0.002013375, Final residual = 1.10733e-05, No Iterations 1
GAMG:  Solving for p, Initial residual = 0.01541663, Final residual = 6.249275e-05, No Iterations 3
GAMG:  Solving for p, Initial residual = 6.329862e-05, Final residual = 7.630028e-07, No Iterations 4
time step continuity errors : sum local = 1.435661e-07, global = -4.313989e-08, cumulative = 5.911439e-06
ExecutionTime = 5.59 s  ClockTime = 5 s

Time = 42

DILUPBiCGStab:  Solving for Ux, Initial residual = 0.0004910038, Final residual = 2.89435e-06, No Iterations 1
DILUPBiCGStab:  Solving for Uy, Initial residual = 0.001401178, Final residual = 7.538193e-06, No Iterations 1
DILUPBiCGStab:  Solving for Uz, Initial residual = 0.001401248, Final residual = 7.53887e-06, No Iterations 1
GAMG:  Solving for p, Initial residual = 0.01273962, Final residual = 4.978734e-05, No Iterations 3
GAMG:  Solving for p, Initial residual = 5.028638e-05, Final residual = 5.545199e-07, No Iterations 4
time step continuity errors : sum local = 1.028779e-07, global = -2.370021e-08, cumulative = 5.887739e-06
ExecutionTime = 5.73 s  ClockTime = 5 s

Time = 43

DILUPBiCGStab:  Solving for Ux, Initial residual = 0.0003514777, Final residual = 2.020224e-06, No Iterations 1
DILUPBiCGStab:  Solving for Uy, Initial residual = 0.0009637927, Final residual = 5.041838e-06, No Iterations 1
DILUPBiCGStab:  Solving for Uz, Initial residual = 0.0009638064, Final residual = 5.041753e-06, No Iterations 1
GAMG:  Solving for p, Initial residual = 0.01047795, Final residual = 3.978352e-05, No Iterations 3
[...]
DILUPBiCGStab:  Solving for Uz, Initial residual = 0.003824728, Final residual = 2.170167e-05, No Iterations 1
GAMG:  Solving for p, Initial residual = 0.02211914, Final residual = 9.425155e-05, No Iterations 3
GAMG:  Solving for p, Initial residual = 9.619116e-05, Final residual = 3.986515e-07, No Iterations 5
time step continuity errors : sum local = 7.813888e-08, global = -3.071197e-08, cumulative = 6.02169e-06
ExecutionTime = 5.15 s  ClockTime = 5 s

Time = 40

DILUPBiCGStab:  Solving for Ux, Initial residual = 0.0009620992, Final residual = 5.722241e-06, No Iterations 1
DILUPBiCGStab:  Solving for Uy, Initial residual = 0.002816519, Final residual = 1.576642e-05, No Iterations 1
DILUPBiCGStab:  Solving for Uz, Initial residual = 0.002816598, Final residual = 1.576708e-05, No Iterations 1
GAMG:  Solving for p, Initial residual = 0.01852526, Final residual = 7.772887e-05, No Iterations 3
GAMG:  Solving for p, Initial residual = 7.900274e-05, Final residual = 9.984411e-07, No Iterations 4
time step continuity errors : sum local = 1.912873e-07, global = -6.711077e-08, cumulative = 5.954579e-06
ExecutionTime = 5.27 s  ClockTime = 5 s

Time = 41

DILUPBiCGStab:  Solving for Ux, Initial residual = 0.0006931542, Final residual = 4.142743e-06, No Iterations 1
DILUPBiCGStab:  Solving for Uy, Initial residual = 0.002013222, Final residual = 1.107126e-05, No Iterations 1
DILUPBiCGStab:  Solving for Uz, Initial residual = 0.002013375, Final residual = 1.10733e-05, No Iterations 1
GAMG:  Solving for p, Initial residual = 0.01541663, Final residual = 6.249275e-05, No Iterations 3
GAMG:  Solving for p, Initial residual = 6.329862e-05, Final residual = 7.630028e-07, No Iterations 4
time step continuity errors : sum local = 1.435661e-07, global = -4.313989e-08, cumulative = 5.911439e-06
ExecutionTime = 5.38 s  ClockTime = 5 s

Time = 42

DILUPBiCGStab:  Solving for Ux, Initial residual = 0.0004910038, Final residual = 2.89435e-06, No Iterations 1
DILUPBiCGStab:  Solving for Uy, Initial residual = 0.001401178, Final residual = 7.538193e-06, No Iterations 1
DILUPBiCGStab:  Solving for Uz, Initial residual = 0.001401248, Final residual = 7.53887e-06, No Iterations 1
GAMG:  Solving for p, Initial residual = 0.01273962, Final residual = 4.978734e-05, No Iterations 3
GAMG:  Solving for p, Initial residual = 5.028638e-05, Final residual = 5.545199e-07, No Iterations 4
time step continuity errors : sum local = 1.028779e-07, global = -2.370021e-08, cumulative = 5.887739e-06
ExecutionTime = 5.5 s  ClockTime = 5 s

Time = 43

DILUPBiCGStab:  Solving for Ux, Initial residual = 0.0003514777, Final residual = 2.020224e-06, No Iterations 1
DILUPBiCGStab:  Solving for Uy, Initial residual = 0.0009637927, Final residual = 5.041838e-06, No Iterations 1
DILUPBiCGStab:  Solving for Uz, Initial residual = 0.0009638064, Final residual = 5.041753e-06, No Iterations 1
GAMG:  Solving for p, Initial residual = 0.01047795, Final residual = 3.978352e-05, No Iterations 3
GAMG:  Solving for p, Initial residual = 4.009274e-05, Final residual = 4.135777e-07, No Iterations 4
time step continuity errors : sum local = 7.58899e-08, global = -1.435563e-08, cumulative = 5.873384e-06
ExecutionTime = 5.63 s  ClockTime = 5 s

Time = 44

DILUPBiCGStab:  Solving for Ux, Initial residual = 0.0002624313, Final residual = 1.466488e-06, No Iterations 1
DILUPBiCGStab:  Solving for Uy, Initial residual = 0.0006859411, Final residual = 3.439829e-06, No Iterations 1
DILUPBiCGStab:  Solving for Uz, Initial residual = 0.0006859653, Final residual = 3.440135e-06, No Iterations 1
GAMG:  Solving for p, Initial residual = 0.008581027, Final residual = 3.187941e-05, No Iterations 3
GAMG:  Solving for p, Initial residual = 3.207148e-05, Final residual = 3.268547e-07, No Iterations 4
time step continuity errors : sum local = 5.946483e-08, global = -1.189585e-08, cumulative = 5.861488e-06
ExecutionTime = 5.78 s  ClockTime = 5 s

Time = 45

DILUPBiCGStab:  Solving for Ux, Initial residual = 0.0002062762, Final residual = 1.182105e-06, No Iterations 1
DILUPBiCGStab:  Solving for Uy, Initial residual = 0.0005139917, Final residual = 2.5836e-06, No Iterations 1
DILUPBiCGStab:  Solving for Uz, Initial residual = 0.0005140382, Final residual = 2.584343e-06, No Iterations 1
GAMG:  Solving for p, Initial residual = 0.006999964, Final residual = 2.560459e-05, No Iterations 3
GAMG:  Solving for p, Initial residual = 2.572364e-05, Final residual = 8.704442e-07, No Iterations 3
time step continuity errors : sum local = 1.573129e-07, global = -3.354208e-08, cumulative = 5.827946e-06
ExecutionTime = 5.92 s  ClockTime = 5 s

Time = 46

DILUPBiCGStab:  Solving for Ux, Initial residual = 0.0001713241, Final residual = 1.043308e-06, No Iterations 1
DILUPBiCGStab:  Solving for Uy, Initial residual = 0.0004046812, Final residual = 2.231922e-06, No Iterations 1
DILUPBiCGStab:  Solving for Uz, Initial residual = 0.0004046567, Final residual = 2.231355e-06, No Iterations 1
GAMG:  Solving for p, Initial residual = 0.005694237, Final residual = 2.061514e-05, No Iterations 3
GAMG:  Solving for p, Initial residual = 2.068915e-05, Final residual = 7.233036e-07, No Iterations 3
time step continuity errors : sum local = 1.3005e-07, global = -3.395567e-08, cumulative = 5.79399e-06
ExecutionTime = 6.12 s  ClockTime = 6 s

Time = 47

DILUPBiCGStab:  Solving for Ux, Initial residual = 0.0001464379, Final residual = 9.678215e-07, No Iterations 1
DILUPBiCGStab:  Solving for Uy, Initial residual = 0.0003294865, Final residual = 2.050726e-06, No Iterations 1
DILUPBiCGStab:  Solving for Uz, Initial residual = 0.0003294963, Final residual = 2.050852e-06, No Iterations 1
GAMG:  Solving for p, Initial residual = 0.004625918, Final residual = 1.65747e-05, No Iterations 3
GAMG:  Solving for p, Initial residual = 1.662082e-05, Final residual = 6.047572e-07, No Iterations 3
time step continuity errors : sum local = 1.083007e-07, global = -3.183032e-08, cumulative = 5.76216e-06
ExecutionTime = 6.25 s  ClockTime = 6 s

Time = 48

DILUPBiCGStab:  Solving for Ux, Initial residual = 0.0001273549, Final residual = 8.968177e-07, No Iterations 1
DILUPBiCGStab:  Solving for Uy, Initial residual = 0.0002762034, Final residual = 1.91011e-06, No Iterations 1
DILUPBiCGStab:  Solving for Uz, Initial residual = 0.000276241, Final residual = 1.91071e-06, No Iterations 1
GAMG:  Solving for p, Initial residual = 0.003755069, Final residual = 1.340228e-05, No Iterations 3
GAMG:  Solving for p, Initial residual = 1.343109e-05, Final residual = 4.967397e-07, No Iterations 3
time step continuity errors : sum local = 8.868094e-08, global = -2.804059e-08, cumulative = 5.734119e-06
ExecutionTime = 6.39 s  ClockTime = 6 s

Time = 49

DILUPBiCGStab:  Solving for Ux, Initial residual = 0.0001112265, Final residual = 8.063001e-07, No Iterations 1
DILUPBiCGStab:  Solving for Uy, Initial residual = 0.000237347, Final residual = 1.749815e-06, No Iterations 1
DILUPBiCGStab:  Solving for Uz, Initial residual = 0.0002373833, Final residual = 1.750337e-06, No Iterations 1
GAMG:  Solving for p, Initial residual = 0.003048634, Final residual = 1.081692e-05, No Iterations 3
GAMG:  Solving for p, Initial residual = 1.083486e-05, Final residual = 4.036092e-07, No Iterations 3
time step continuity errors : sum local = 7.188147e-08, global = -2.382027e-08, cumulative = 5.710299e-06
ExecutionTime = 6.55 s  ClockTime = 6 s

Time = 50

DILUPBiCGStab:  Solving for Ux, Initial residual = 9.64035e-05, Final residual = 7.067495e-07, No Iterations 1
DILUPBiCGStab:  Solving for Uy, Initial residual = 0.000206263, Final residual = 1.552718e-06, No Iterations 1
DILUPBiCGStab:  Solving for Uz, Initial residual = 0.0002062817, Final residual = 1.552978e-06, No Iterations 1
GAMG:  Solving for p, Initial residual = 0.002476877, Final residual = 8.699763e-06, No Iterations 3
GAMG:  Solving for p, Initial residual = 8.710948e-06, Final residual = 9.839118e-07, No Iterations 2
time step continuity errors : sum local = 1.749023e-07, global = -4.958885e-08, cumulative = 5.66071e-06
ExecutionTime = 6.78 s  ClockTime = 6 s

Time = 51

DILUPBiCGStab:  Solving for Ux, Initial residual = 8.294821e-05, Final residual = 6.052922e-07, No Iterations 1
DILUPBiCGStab:  Solving for Uy, Initial residual = 0.0001789894, Final residual = 1.345538e-06, No Iterations 1
DILUPBiCGStab:  Solving for Uz, Initial residual = 0.0001789775, Final residual = 1.34542e-06, No Iterations 1
GAMG:  Solving for p, Initial residual = 0.002014597, Final residual = 7.045619e-06, No Iterations 3
GAMG:  Solving for p, Initial residual = 7.052751e-06, Final residual = 8.001028e-07, No Iterations 2
time step continuity errors : sum local = 1.420164e-07, global = -4.220079e-08, cumulative = 5.618509e-06
ExecutionTime = 6.92 s  ClockTime = 6 s

Time = 52

DILUPBiCGStab:  Solving for Ux, Initial residual = 7.105952e-05, Final residual = 5.09833e-07, No Iterations 1
DILUPBiCGStab:  Solving for Uy, Initial residual = 0.0001537375, Final residual = 1.131652e-06, No Iterations 1
DILUPBiCGStab:  Solving for Uz, Initial residual = 0.000153742, Final residual = 1.131709e-06, No Iterations 1
GAMG:  Solving for p, Initial residual = 0.001641183, Final residual = 5.681762e-06, No Iterations 3
GAMG:  Solving for p, Initial residual = 5.686314e-06, Final residual = 6.481518e-07, No Iterations 2
time step continuity errors : sum local = 1.149092e-07, global = -3.535311e-08, cumulative = 5.583156e-06
ExecutionTime = 7.06 s  ClockTime = 7 s

Time = 53

DILUPBiCGStab:  Solving for Ux, Initial residual = 6.04963e-05, Final residual = 4.253212e-07, No Iterations 1
DILUPBiCGStab:  Solving for Uy, Initial residual = 0.0001305859, Final residual = 9.363659e-07, No Iterations 1
DILUPBiCGStab:  Solving for Uz, Initial residual = 0.0001305966, Final residual = 9.365195e-07, No Iterations 1
GAMG:  Solving for p, Initial residual = 0.001338973, Final residual = 4.578763e-06, No Iterations 3
GAMG:  Solving for p, Initial residual = 4.581683e-06, Final residual = 5.235297e-07, No Iterations 2
time step continuity errors : sum local = 9.27273e-08, global = -2.937956e-08, cumulative = 5.553776e-06
ExecutionTime = 7.19 s  ClockTime = 7 s

Time = 54

DILUPBiCGStab:  Solving for Ux, Initial residual = 5.108083e-05, Final residual = 3.526243e-07, No Iterations 1
DILUPBiCGStab:  Solving for Uy, Initial residual = 0.0001098492, Final residual = 7.67072e-07, No Iterations 1
DILUPBiCGStab:  Solving for Uz, Initial residual = 0.0001098533, Final residual = 7.671597e-07, No Iterations 1
GAMG:  Solving for p, Initial residual = 0.001094413, Final residual = 3.693684e-06, No Iterations 3
GAMG:  Solving for p, Initial residual = 3.69557e-06, Final residual = 4.220297e-07, No Iterations 2
time step continuity errors : sum local = 7.469275e-08, global = -2.42849e-08, cumulative = 5.529492e-06
ExecutionTime = 7.3 s  ClockTime = 7 s

Time = 55

DILUPBiCGStab:  Solving for Ux, Initial residual = 4.280538e-05, Final residual = 2.892929e-07, No Iterations 1
DILUPBiCGStab:  Solving for Uy, Initial residual = 9.135786e-05, Final residual = 6.220818e-07, No Iterations 1
DILUPBiCGStab:  Solving for Uz, Initial residual = 9.135412e-05, Final residual = 6.220602e-07, No Iterations 1
GAMG:  Solving for p, Initial residual = 0.0008957891, Final residual = 2.982851e-06, No Iterations 3
GAMG:  Solving for p, Initial residual = 2.984088e-06, Final residual = 9.644012e-07, No Iterations 1
time step continuity errors : sum local = 1.705785e-07, global = -6.462282e-08, cumulative = 5.464869e-06
ExecutionTime = 7.42 s  ClockTime = 7 s

Time = 56

DILUPBiCGStab:  Solving for Ux, Initial residual = 3.55956e-05, Final residual = 2.356375e-07, No Iterations 1
DILUPBiCGStab:  Solving for Uy, Initial residual = 7.534701e-05, Final residual = 5.04754e-07, No Iterations 1
DILUPBiCGStab:  Solving for Uz, Initial residual = 7.534721e-05, Final residual = 5.044735e-07, No Iterations 1
GAMG:  Solving for p, Initial residual = 0.0007343577, Final residual = 2.455419e-06, No Iterations 3
GAMG:  Solving for p, Initial residual = 2.456271e-06, Final residual = 7.868955e-07, No Iterations 1
time step continuity errors : sum local = 1.391109e-07, global = -5.588618e-08, cumulative = 5.408983e-06
ExecutionTime = 7.57 s  ClockTime = 7 s

Time = 57

DILUPBiCGStab:  Solving for Ux, Initial residual = 2.925752e-05, Final residual = 1.902695e-07, No Iterations 1
DILUPBiCGStab:  Solving for Uy, Initial residual = 6.032015e-05, Final residual = 3.94319e-07, No Iterations 1
DILUPBiCGStab:  Solving for Uz, Initial residual = 6.032454e-05, Final residual = 3.942536e-07, No Iterations 1
GAMG:  Solving for p, Initial residual = 0.0006026505, Final residual = 1.994572e-06, No Iterations 3
GAMG:  Solving for p, Initial residual = 1.995157e-06, Final residual = 6.35563e-07, No Iterations 1
time step continuity errors : sum local = 1.123097e-07, global = -4.696987e-08, cumulative = 5.362013e-06
ExecutionTime = 7.7 s  ClockTime = 7 s

Time = 58

DILUPBiCGStab:  Solving for Ux, Initial residual = 2.366852e-05, Final residual = 1.523646e-07, No Iterations 1
DILUPBiCGStab:  Solving for Uy, Initial residual = 4.705806e-05, Final residual = 2.997231e-07, No Iterations 1
DILUPBiCGStab:  Solving for Uz, Initial residual = 4.706084e-05, Final residual = 2.997821e-07, No Iterations 1
GAMG:  Solving for p, Initial residual = 0.000494948, Final residual = 1.620805e-06, No Iterations 3
GAMG:  Solving for p, Initial residual = 1.62121e-06, Final residual = 5.155046e-07, No Iterations 1
time step continuity errors : sum local = 9.10617e-08, global = -3.898449e-08, cumulative = 5.323028e-06
ExecutionTime = 7.8 s  ClockTime = 7 s

Time = 59

DILUPBiCGStab:  Solving for Ux, Initial residual = 1.876176e-05, Final residual = 1.204957e-07, No Iterations 1
DILUPBiCGStab:  Solving for Uy, Initial residual = 3.593819e-05, Final residual = 2.216426e-07, No Iterations 1
DILUPBiCGStab:  Solving for Uz, Initial residual = 3.59375e-05, Final residual = 2.216611e-07, No Iterations 1
GAMG:  Solving for p, Initial residual = 0.0004065568, Final residual = 1.334156e-06, No Iterations 3
GAMG:  Solving for p, Initial residual = 1.334441e-06, Final residual = 4.251565e-07, No Iterations 1
time step continuity errors : sum local = 7.507943e-08, global = -3.244156e-08, cumulative = 5.290587e-06
ExecutionTime = 7.93 s  ClockTime = 7 s

Time = 60

DILUPBiCGStab:  Solving for Ux, Initial residual = 1.47201e-05, Final residual = 9.263054e-08, No Iterations 1
DILUPBiCGStab:  Solving for Uy, Initial residual = 2.693753e-05, Final residual = 1.580952e-07, No Iterations 1
DILUPBiCGStab:  Solving for Uz, Initial residual = 2.693759e-05, Final residual = 1.580371e-07, No Iterations 1
GAMG:  Solving for p, Initial residual = 0.0003338603, Final residual = 1.121262e-06, No Iterations 3
GAMG:  Solving for p, Initial residual = 1.121469e-06, Final residual = 3.577334e-07, No Iterations 1
time step continuity errors : sum local = 6.315687e-08, global = -2.74377e-08, cumulative = 5.263149e-06
ExecutionTime = 8.06 s  ClockTime = 8 s

Time = 61

DILUPBiCGStab:  Solving for Ux, Initial residual = 1.160636e-05, Final residual = 6.97165e-08, No Iterations 1
DILUPBiCGStab:  Solving for Uy, Initial residual = 1.986116e-05, Final residual = 1.081252e-07, No Iterations 1
DILUPBiCGStab:  Solving for Uz, Initial residual = 1.986218e-05, Final residual = 1.080477e-07, No Iterations 1
GAMG:  Solving for p, Initial residual = 0.0002739404, Final residual = 9.609805e-07, No Iterations 3
GAMG:  Solving for p, Initial residual = 9.611348e-07, Final residual = 9.611348e-07, No Iterations 0
time step continuity errors : sum local = 1.696488e-07, global = -6.123967e-08, cumulative = 5.201909e-06
ExecutionTime = 8.16 s  ClockTime = 8 s

Time = 62

DILUPBiCGStab:  Solving for Ux, Initial residual = 9.513593e-06, Final residual = 5.436122e-08, No Iterations 1
DILUPBiCGStab:  Solving for Uy, Initial residual = 1.477254e-05, Final residual = 7.615186e-08, No Iterations 1
DILUPBiCGStab:  Solving for Uz, Initial residual = 1.477365e-05, Final residual = 7.622701e-08, No Iterations 1
GAMG:  Solving for p, Initial residual = 0.0002246709, Final residual = 8.756696e-07, No Iterations 3
GAMG:  Solving for p, Initial residual = 8.757944e-07, Final residual = 8.757944e-07, No Iterations 0
time step continuity errors : sum local = 1.545569e-07, global = -5.574077e-08, cumulative = 5.146169e-06
ExecutionTime = 8.27 s  ClockTime = 8 s

Time = 63

DILUPBiCGStab:  Solving for Ux, Initial residual = 8.12127e-06, Final residual = 4.62194e-08, No Iterations 1
DILUPBiCGStab:  Solving for Uy, Initial residual = 1.160435e-05, Final residual = 6.262284e-08, No Iterations 1
DILUPBiCGStab:  Solving for Uz, Initial residual = 1.160617e-05, Final residual = 6.268489e-08, No Iterations 1
GAMG:  Solving for p, Initial residual = 0.0001840668, Final residual = 7.71239e-07, No Iterations 3
GAMG:  Solving for p, Initial residual = 7.713336e-07, Final residual = 7.713336e-07, No Iterations 0
time step continuity errors : sum local = 1.361009e-07, global = -4.545273e-08, cumulative = 5.100716e-06
ExecutionTime = 8.36 s  ClockTime = 8 s

Time = 64

DILUPBiCGStab:  Solving for Ux, Initial residual = 7.281081e-06, Final residual = 4.252791e-08, No Iterations 1
DILUPBiCGStab:  Solving for Uy, Initial residual = 1.064273e-05, Final residual = 6.97123e-08, No Iterations 1
DILUPBiCGStab:  Solving for Uz, Initial residual = 1.063785e-05, Final residual = 6.962809e-08, No Iterations 1
GAMG:  Solving for p, Initial residual = 0.0001507765, Final residual = 6.645878e-07, No Iterations 3
GAMG:  Solving for p, Initial residual = 6.646563e-07, Final residual = 6.646563e-07, No Iterations 0
time step continuity errors : sum local = 1.172627e-07, global = -3.391525e-08, cumulative = 5.066801e-06
ExecutionTime = 8.47 s  ClockTime = 8 s

Time = 65

DILUPBiCGStab:  Solving for Ux, Initial residual = 6.777512e-06, Final residual = 4.106807e-08, No Iterations 1
DILUPBiCGStab:  Solving for Uy, Initial residual = 1.073347e-05, Final residual = 7.965605e-08, No Iterations 1
DILUPBiCGStab:  Solving for Uz, Initial residual = 1.072697e-05, Final residual = 7.953004e-08, No Iterations 1
GAMG:  Solving for p, Initial residual = 0.0001236369, Final residual = 5.679858e-07, No Iterations 3
GAMG:  Solving for p, Initial residual = 5.68034e-07, Final residual = 5.68034e-07, No Iterations 0
time step continuity errors : sum local = 1.002055e-07, global = -2.398083e-08, cumulative = 5.04282e-06
ExecutionTime = 8.59 s  ClockTime = 8 s

Time = 66

DILUPBiCGStab:  Solving for Ux, Initial residual = 6.25779e-06, Final residual = 3.936898e-08, No Iterations 1
DILUPBiCGStab:  Solving for Uy, Initial residual = 1.086974e-05, Final residual = 8.191686e-08, No Iterations 1
DILUPBiCGStab:  Solving for Uz, Initial residual = 1.086761e-05, Final residual = 8.183593e-08, No Iterations 1
GAMG:  Solving for p, Initial residual = 0.0001015844, Final residual = 4.828974e-07, No Iterations 3
GAMG:  Solving for p, Initial residual = 4.829306e-07, Final residual = 4.829306e-07, No Iterations 0
time step continuity errors : sum local = 8.518541e-08, global = -1.652099e-08, cumulative = 5.026299e-06
ExecutionTime = 8.73 s  ClockTime = 8 s

Time = 67

DILUPBiCGStab:  Solving for Ux, Initial residual = 5.662157e-06, Final residual = 3.660366e-08, No Iterations 1
DILUPBiCGStab:  Solving for Uy, Initial residual = 1.062421e-05, Final residual = 7.849418e-08, No Iterations 1
DILUPBiCGStab:  Solving for Uz, Initial residual = 1.062614e-05, Final residual = 7.847062e-08, No Iterations 1
GAMG:  Solving for p, Initial residual = 8.374914e-05, Final residual = 9.751494e-07, No Iterations 2
GAMG:  Solving for p, Initial residual = 9.751987e-07, Final residual = 9.751987e-07, No Iterations 0
time step continuity errors : sum local = 1.720071e-07, global = -1.097829e-07, cumulative = 4.916516e-06
ExecutionTime = 8.82 s  ClockTime = 8 s


SIMPLE solution converged in 67 iterations

End

