/*---------------------------------------------------------------------------*\
| =========                 |                                                 |
| \\      /  F ield         | OpenFOAM: The Open Source CFD Toolbox           |
|  \\    /   O peration     | Version:  2106                                  |
|   \\  /    A nd           | Website:  www.openfoam.com                      |
|    \\/     M anipulation  |                                                 |
\*---------------------------------------------------------------------------*/
Build  : _f815a12b-20210902 OPENFOAM=2106
Arch   : "LSB;label=32;scalar=64"
Exec   : topoSet
Date   : Jan 02 2022
Time   : 15:50:13
Host   : ServaasComputer
PID    : 12278
I/O    : uncollated
Case   : /home/servaas/OpenFOAM/servaas-v2106/porosityCoeff/porosityCoeff
nProcs : 1
trapFpe: Floating point exception trapping enabled (FOAM_SIGFPE).
fileModificationChecking : Monitoring run-time modified files using timeStampMaster (fileModificationSkew 5, maxFileModificationPolls 20)
allowSystemOperations : Allowing user-supplied system call operations

// * * * * * * * * * * * * * * * * * * * * * * * * * * * * * * * * * * * * * //
Create time

Overriding OptimisationSwitches according to controlDict
    fileHandler (unregistered)
    fileModificationSkew 0;

    maxMasterFileBufferSize 1e+09;

    maxThreadFileBufferSize 1e+09;

    mpiBufferSize (unregistered)
Create polyMesh for time = 0

Reading topoSetDict

Time = 0
    mesh not changed.
Created cellZoneSet box_1
    Applying source boxToCell
    Adding cells with centre within boxes 1((-0.25 -0.25 -0.25) (0.25 0.25 0.25))
    cellZoneSet box_1 now size 8000

End

/*---------------------------------------------------------------------------*\
| =========                 |                                                 |
| \\      /  F ield         | OpenFOAM: The Open Source CFD Toolbox           |
|  \\    /   O peration     | Version:  2106                                  |
|   \\  /    A nd           | Website:  www.openfoam.com                      |
|    \\/     M anipulation  |                                                 |
\*---------------------------------------------------------------------------*/
Build  : _f815a12b-20210902 OPENFOAM=2106
Arch   : "LSB;label=32;scalar=64"
Exec   : topoSet
Date   : Jan 02 2022
Time   : 15:51:03
Host   : ServaasComputer
PID    : 12344
I/O    : uncollated
Case   : /home/servaas/OpenFOAM/servaas-v2106/porosityCoeff/porosityCoeff
nProcs : 1
trapFpe: Floating point exception trapping enabled (FOAM_SIGFPE).
fileModificationChecking : Monitoring run-time modified files using timeStampMaster (fileModificationSkew 5, maxFileModificationPolls 20)
allowSystemOperations : Allowing user-supplied system call operations

// * * * * * * * * * * * * * * * * * * * * * * * * * * * * * * * * * * * * * //
Create time

Overriding OptimisationSwitches according to controlDict
    fileHandler (unregistered)
    fileModificationSkew 0;

    maxMasterFileBufferSize 1e+09;

    maxThreadFileBufferSize 1e+09;

    mpiBufferSize (unregistered)
Create polyMesh for time = 0

Reading topoSetDict

Time = 0
    mesh not changed.
Created cellZoneSet box_1
    Applying source boxToCell
    Adding cells with centre within boxes 1((-0.25 -0.25 -0.25) (0.25 0.25 0.25))
    cellZoneSet box_1 now size 8000

End

/*---------------------------------------------------------------------------*\
| =========                 |                                                 |
| \\      /  F ield         | OpenFOAM: The Open Source CFD Toolbox           |
|  \\    /   O peration     | Version:  2106                                  |
|   \\  /    A nd           | Website:  www.openfoam.com                      |
|    \\/     M anipulation  |                                                 |
\*---------------------------------------------------------------------------*/
Build  : _f815a12b-20210902 OPENFOAM=2106
Arch   : "LSB;label=32;scalar=64"
Exec   : topoSet
Date   : Jan 02 2022
Time   : 15:51:28
Host   : ServaasComputer
PID    : 12444
I/O    : uncollated
Case   : /home/servaas/OpenFOAM/servaas-v2106/porosityCoeff/porosityCoeff
nProcs : 1
trapFpe: Floating point exception trapping enabled (FOAM_SIGFPE).
fileModificationChecking : Monitoring run-time modified files using timeStampMaster (fileModificationSkew 5, maxFileModificationPolls 20)
allowSystemOperations : Allowing user-supplied system call operations

// * * * * * * * * * * * * * * * * * * * * * * * * * * * * * * * * * * * * * //
Create time

Overriding OptimisationSwitches according to controlDict
    fileHandler (unregistered)
    fileModificationSkew 0;

    maxMasterFileBufferSize 1e+09;

    maxThreadFileBufferSize 1e+09;

    mpiBufferSize (unregistered)
Create polyMesh for time = 0

Reading topoSetDict

Time = 0
    mesh not changed.
Created cellZoneSet box_1
    Applying source boxToCell
    Adding cells with centre within boxes 1((-0.25 -0.25 -0.25) (0.25 0.25 0.25))
    cellZoneSet box_1 now size 8000

End

/*---------------------------------------------------------------------------*\
| =========                 |                                                 |
| \\      /  F ield         | OpenFOAM: The Open Source CFD Toolbox           |
|  \\    /   O peration     | Version:  2106                                  |
|   \\  /    A nd           | Website:  www.openfoam.com                      |
|    \\/     M anipulation  |                                                 |
\*---------------------------------------------------------------------------*/
Build  : _f815a12b-20210902 OPENFOAM=2106
Arch   : "LSB;label=32;scalar=64"
Exec   : topoSet
Date   : Jan 02 2022
Time   : 15:52:06
Host   : ServaasComputer
PID    : 12526
I/O    : uncollated
Case   : /home/servaas/OpenFOAM/servaas-v2106/porosityCoeff/porosityCoeff
nProcs : 1
trapFpe: Floating point exception trapping enabled (FOAM_SIGFPE).
fileModificationChecking : Monitoring run-time modified files using timeStampMaster (fileModificationSkew 5, maxFileModificationPolls 20)
allowSystemOperations : Allowing user-supplied system call operations

// * * * * * * * * * * * * * * * * * * * * * * * * * * * * * * * * * * * * * //
Create time

Overriding OptimisationSwitches according to controlDict
    fileHandler (unregistered)
    fileModificationSkew 0;

    maxMasterFileBufferSize 1e+09;

    maxThreadFileBufferSize 1e+09;

    mpiBufferSize (unregistered)
Create polyMesh for time = 0

Reading topoSetDict

Time = 0
    mesh not changed.
Created cellZoneSet box_1
    Applying source boxToCell
    Adding cells with centre within boxes 1((-0.25 -0.25 -0.25) (0.25 0.25 0.25))
    cellZoneSet box_1 now size 8000

End

/*---------------------------------------------------------------------------*\
| =========                 |                                                 |
| \\      /  F ield         | OpenFOAM: The Open Source CFD Toolbox           |
|  \\    /   O peration     | Version:  2106                                  |
|   \\  /    A nd           | Website:  www.openfoam.com                      |
|    \\/     M anipulation  |                                                 |
\*---------------------------------------------------------------------------*/
Build  : _f815a12b-20210902 OPENFOAM=2106
Arch   : "LSB;label=32;scalar=64"
Exec   : topoSet
Date   : Jan 02 2022
Time   : 15:53:34
Host   : ServaasComputer
PID    : 12688
I/O    : uncollated
Case   : /home/servaas/OpenFOAM/servaas-v2106/porosityCoeff/porosityCoeff
nProcs : 1
trapFpe: Floating point exception trapping enabled (FOAM_SIGFPE).
fileModificationChecking : Monitoring run-time modified files using timeStampMaster (fileModificationSkew 5, maxFileModificationPolls 20)
allowSystemOperations : Allowing user-supplied system call operations

// * * * * * * * * * * * * * * * * * * * * * * * * * * * * * * * * * * * * * //
Create time

Overriding OptimisationSwitches according to controlDict
    fileHandler (unregistered)
    fileModificationSkew 0;

    maxMasterFileBufferSize 1e+09;

    maxThreadFileBufferSize 1e+09;

    mpiBufferSize (unregistered)
Create polyMesh for time = 0

Reading topoSetDict

Time = 0
    mesh not changed.
Created cellZoneSet box_1
    Applying source boxToCell
    Adding cells with centre within boxes 1((-0.25 -0.25 -0.25) (0.25 0.25 0.25))
    cellZoneSet box_1 now size 8000

End

/*---------------------------------------------------------------------------*\
| =========                 |                                                 |
| \\      /  F ield         | OpenFOAM: The Open Source CFD Toolbox           |
|  \\    /   O peration     | Version:  2106                                  |
|   \\  /    A nd           | Website:  www.openfoam.com                      |
|    \\/     M anipulation  |                                                 |
\*---------------------------------------------------------------------------*/
Build  : _f815a12b-20210902 OPENFOAM=2106
Arch   : "LSB;label=32;scalar=64"
Exec   : topoSet
Date   : Jan 02 2022
Time   : 15:54:38
Host   : ServaasComputer
PID    : 12743
I/O    : uncollated
Case   : /home/servaas/OpenFOAM/servaas-v2106/porosityCoeff/porosityCoeff
nProcs : 1
trapFpe: Floating point exception trapping enabled (FOAM_SIGFPE).
fileModificationChecking : Monitoring run-time modified files using timeStampMaster (fileModificationSkew 5, maxFileModificationPolls 20)
allowSystemOperations : Allowing user-supplied system call operations

// * * * * * * * * * * * * * * * * * * * * * * * * * * * * * * * * * * * * * //
Create time

Overriding OptimisationSwitches according to controlDict
    fileHandler (unregistered)
    fileModificationSkew 0;

    maxMasterFileBufferSize 1e+09;

    maxThreadFileBufferSize 1e+09;

    mpiBufferSize (unregistered)
Create polyMesh for time = 0

Reading topoSetDict

Time = 0
    mesh not changed.
Created cellZoneSet box_1
    Applying source boxToCell
    Adding cells with centre within boxes 1((-0.25 -0.25 -0.25) (0.25 0.25 0.25))
    cellZoneSet box_1 now size 8000

End

/*---------------------------------------------------------------------------*\
| =========                 |                                                 |
| \\      /  F ield         | OpenFOAM: The Open Source CFD Toolbox           |
|  \\    /   O peration     | Version:  2106                                  |
|   \\  /    A nd           | Website:  www.openfoam.com                      |
|    \\/     M anipulation  |                                                 |
\*---------------------------------------------------------------------------*/
Build  : _f815a12b-20210902 OPENFOAM=2106
Arch   : "LSB;label=32;scalar=64"
Exec   : topoSet
Date   : Jan 02 2022
Time   : 15:54:46
Host   : ServaasComputer
PID    : 12783
I/O    : uncollated
Case   : /home/servaas/OpenFOAM/servaas-v2106/porosityCoeff/porosityCoeff
nProcs : 1
trapFpe: Floating point exception trapping enabled (FOAM_SIGFPE).
fileModificationChecking : Monitoring run-time modified files using timeStampMaster (fileModificationSkew 5, maxFileModificationPolls 20)
allowSystemOperations : Allowing user-supplied system call operations

// * * * * * * * * * * * * * * * * * * * * * * * * * * * * * * * * * * * * * //
Create time

Overriding OptimisationSwitches according to controlDict
    fileHandler (unregistered)
    fileModificationSkew 0;

    maxMasterFileBufferSize 1e+09;

    maxThreadFileBufferSize 1e+09;

    mpiBufferSize (unregistered)
Create polyMesh for time = 0

Reading topoSetDict

Time = 0
    mesh not changed.
Created cellZoneSet box_1
    Applying source boxToCell
    Adding cells with centre within boxes 1((-0.25 -0.25 -0.25) (0.25 0.25 0.25))
    cellZoneSet box_1 now size 8000

End

/*---------------------------------------------------------------------------*\
| =========                 |                                                 |
| \\      /  F ield         | OpenFOAM: The Open Source CFD Toolbox           |
|  \\    /   O peration     | Version:  2106                                  |
|   \\  /    A nd           | Website:  www.openfoam.com                      |
|    \\/     M anipulation  |                                                 |
\*---------------------------------------------------------------------------*/
Build  : _f815a12b-20210902 OPENFOAM=2106
Arch   : "LSB;label=32;scalar=64"
Exec   : topoSet
Date   : Jan 02 2022
Time   : 15:55:42
Host   : ServaasComputer
PID    : 12842
I/O    : uncollated
Case   : /home/servaas/OpenFOAM/servaas-v2106/porosityCoeff/porosityCoeff
nProcs : 1
trapFpe: Floating point exception trapping enabled (FOAM_SIGFPE).
fileModificationChecking : Monitoring run-time modified files using timeStampMaster (fileModificationSkew 5, maxFileModificationPolls 20)
allowSystemOperations : Allowing user-supplied system call operations

// * * * * * * * * * * * * * * * * * * * * * * * * * * * * * * * * * * * * * //
Create time

Overriding OptimisationSwitches according to controlDict
    fileHandler (unregistered)
    fileModificationSkew 0;

    maxMasterFileBufferSize 1e+09;

    maxThreadFileBufferSize 1e+09;

    mpiBufferSize (unregistered)
Create polyMesh for time = 0

Reading topoSetDict

Time = 0
    mesh not changed.
Created cellZoneSet box_1
    Applying source boxToCell
    Adding cells with centre within boxes 1((-0.25 -0.25 -0.25) (0.25 0.25 0.25))
    cellZoneSet box_1 now size 8000

End

