/*---------------------------------------------------------------------------*\
| =========                 |                                                 |
| \\      /  F ield         | OpenFOAM: The Open Source CFD Toolbox           |
|  \\    /   O peration     | Version:  2106                                  |
|   \\  /    A nd           | Website:  www.openfoam.com                      |
|    \\/     M anipulation  |                                                 |
\*---------------------------------------------------------------------------*/
Build  : _0d6e2e9e33-20210907 OPENFOAM=2106
Arch   : "LSB;label=32;scalar=64"
Exec   : topoSet -parallel
Date   : Jan 16 2022
Time   : 14:38:39
Host   : MSI
PID    : 17443
I/O    : uncollated
Case   : /home/servaas/OpenFOAM/servaas-v2106/fishNetParallelDeformed3
nProcs : 4
Hosts  :
(
    (MSI 4)
)
Pstream initialized with:
    floatTransfer      : 0
    nProcsSimpleSum    : 0
    commsType          : nonBlocking
    polling iterations : 0
trapFpe: Floating point exception trapping enabled (FOAM_SIGFPE).
fileModificationChecking : Monitoring run-time modified files using timeStampMaster (fileModificationSkew 5, maxFileModificationPolls 20)
allowSystemOperations : Allowing user-supplied system call operations

// * * * * * * * * * * * * * * * * * * * * * * * * * * * * * * * * * * * * * //
Create time

Overriding OptimisationSwitches according to controlDict
    fileHandler (unregistered)
    fileModificationSkew 0;

    maxMasterFileBufferSize 1e+09;

    maxThreadFileBufferSize 1e+09;

    mpiBufferSize (unregistered)
Create polyMesh for time = 0

Reading topoSetDict

Time = 0
    mesh not changed.
Created cellZoneSet zone0
    Applying source surfaceToCell
    Adding cells in relation to surface "constant/triSurface/STL_Files/0.stl" ...
    Marked inside/outside using surface intersection in = 0.86 s

    cellZoneSet zone0 now size 6
Created cellZoneSet zone1
    Applying source surfaceToCell
    Adding cells in relation to surface "constant/triSurface/STL_Files/1.stl" ...
    Marked inside/outside using surface intersection in = 0.71 s

    cellZoneSet zone1 now size 8
Created cellZoneSet zone2
    Applying source surfaceToCell
    Adding cells in relation to surface "constant/triSurface/STL_Files/2.stl" ...
    Marked inside/outside using surface intersection in = 0.74 s

    cellZoneSet zone2 now size 10
Created cellZoneSet zone3
    Applying source surfaceToCell
    Adding cells in relation to surface "constant/triSurface/STL_Files/3.stl" ...
    Marked inside/outside using surface intersection in = 0.74 s

    cellZoneSet zone3 now size 10
Created cellZoneSet zone4
    Applying source surfaceToCell
    Adding cells in relation to surface "constant/triSurface/STL_Files/4.stl" ...
    Marked inside/outside using surface intersection in = 0.78 s

    cellZoneSet zone4 now size 11
Created cellZoneSet zone5
    Applying source surfaceToCell
    Adding cells in relation to surface "constant/triSurface/STL_Files/5.stl" ...
    Marked inside/outside using surface intersection in = 0.75 s

    cellZoneSet zone5 now size 9
Created cellZoneSet zone6
    Applying source surfaceToCell
    Adding cells in relation to surface "constant/triSurface/STL_Files/6.stl" ...
    Marked inside/outside using surface intersection in = 0.78 s

    cellZoneSet zone6 now size 11
Created cellZoneSet zone7
    Applying source surfaceToCell
    Adding cells in relation to surface "constant/triSurface/STL_Files/7.stl" ...
    Marked inside/outside using surface intersection in = 0.72 s

    cellZoneSet zone7 now size 10
Created cellZoneSet zone8
    Applying source surfaceToCell
    Adding cells in relation to surface "constant/triSurface/STL_Files/8.stl" ...
    Marked inside/outside using surface intersection in = 0.75 s

    cellZoneSet zone8 now size 8
Created cellZoneSet zone9
    Applying source surfaceToCell
    Adding cells in relation to surface "constant/triSurface/STL_Files/9.stl" ...
    Marked inside/outside using surface intersection in = 0.74 s

    cellZoneSet zone9 now size 12
Created cellZoneSet zone10
    Applying source surfaceToCell
    Adding cells in relation to surface "constant/triSurface/STL_Files/10.stl" ...
    Marked inside/outside using surface intersection in = 0.77 s

    cellZoneSet zone10 now size 12
Created cellZoneSet zone11
    Applying source surfaceToCell
    Adding cells in relation to surface "constant/triSurface/STL_Files/11.stl" ...
    Marked inside/outside using surface intersection in = 0.79 s

    cellZoneSet zone11 now size 10
Created cellZoneSet zone12
    Applying source surfaceToCell
    Adding cells in relation to surface "constant/triSurface/STL_Files/12.stl" ...
    Marked inside/outside using surface intersection in = 0.77 s

    cellZoneSet zone12 now size 16
Created cellZoneSet zone13
    Applying source surfaceToCell
    Adding cells in relation to surface "constant/triSurface/STL_Files/13.stl" ...
    Marked inside/outside using surface intersection in = 0.87 s

    cellZoneSet zone13 now size 8
Created cellZoneSet zone14
    Applying source surfaceToCell
    Adding cells in relation to surface "constant/triSurface/STL_Files/14.stl" ...
    Marked inside/outside using surface intersection in = 0.91 s

    cellZoneSet zone14 now size 9
Created cellZoneSet zone15
    Applying source surfaceToCell
    Adding cells in relation to surface "constant/triSurface/STL_Files/15.stl" ...
    Marked inside/outside using surface intersection in = 1.13 s

    cellZoneSet zone15 now size 6
Created cellZoneSet zone16
    Applying source surfaceToCell
    Adding cells in relation to surface "constant/triSurface/STL_Files/16.stl" ...
    Marked inside/outside using surface intersection in = 0.98 s

    cellZoneSet zone16 now size 10
Created cellZoneSet zone17
    Applying source surfaceToCell
    Adding cells in relation to surface "constant/triSurface/STL_Files/17.stl" ...
    Marked inside/outside using surface intersection in = 0.88 s

    cellZoneSet zone17 now size 10
Created cellZoneSet zone18
    Applying source surfaceToCell
    Adding cells in relation to surface "constant/triSurface/STL_Files/18.stl" ...
    Marked inside/outside using surface intersection in = 0.83 s

    cellZoneSet zone18 now size 11
Created cellZoneSet zone19
    Applying source surfaceToCell
    Adding cells in relation to surface "constant/triSurface/STL_Files/19.stl" ...
    Marked inside/outside using surface intersection in = 0.85 s

    cellZoneSet zone19 now size 9
Created cellZoneSet zone20
    Applying source surfaceToCell
    Adding cells in relation to surface "constant/triSurface/STL_Files/20.stl" ...
    Marked inside/outside using surface intersection in = 0.86 s

    cellZoneSet zone20 now size 11
Created cellZoneSet zone21
    Applying source surfaceToCell
    Adding cells in relation to surface "constant/triSurface/STL_Files/21.stl" ...
    Marked inside/outside using surface intersection in = 0.84 s

    cellZoneSet zone21 now size 9
Created cellZoneSet zone22
    Applying source surfaceToCell
    Adding cells in relation to surface "constant/triSurface/STL_Files/22.stl" ...
    Marked inside/outside using surface intersection in = 0.86 s

    cellZoneSet zone22 now size 11
Created cellZoneSet zone23
    Applying source surfaceToCell
    Adding cells in relation to surface "constant/triSurface/STL_Files/23.stl" ...
    Marked inside/outside using surface intersection in = 0.84 s

    cellZoneSet zone23 now size 13
Created cellZoneSet zone24
    Applying source surfaceToCell
    Adding cells in relation to surface "constant/triSurface/STL_Files/24.stl" ...
    Marked inside/outside using surface intersection in = 0.79 s

    cellZoneSet zone24 now size 8
Created cellZoneSet zone25
    Applying source surfaceToCell
    Adding cells in relation to surface "constant/triSurface/STL_Files/25.stl" ...
    Marked inside/outside using surface intersection in = 0.81 s

    cellZoneSet zone25 now size 10
Created cellZoneSet zone26
    Applying source surfaceToCell
    Adding cells in relation to surface "constant/triSurface/STL_Files/26.stl" ...
    Marked inside/outside using surface intersection in = 0.8 s

    cellZoneSet zone26 now size 7
Created cellZoneSet zone27
    Applying source surfaceToCell
    Adding cells in relation to surface "constant/triSurface/STL_Files/27.stl" ...
    Marked inside/outside using surface intersection in = 0.81 s

    cellZoneSet zone27 now size 9
Created cellZoneSet zone28
    Applying source surfaceToCell
    Adding cells in relation to surface "constant/triSurface/STL_Files/28.stl" ...
    Marked inside/outside using surface intersection in = 0.8 s

    cellZoneSet zone28 now size 11
Created cellZoneSet zone29
    Applying source surfaceToCell
    Adding cells in relation to surface "constant/triSurface/STL_Files/29.stl" ...
    Marked inside/outside using surface intersection in = 0.86 s

    cellZoneSet zone29 now size 6
Created cellZoneSet zone30
    Applying source surfaceToCell
    Adding cells in relation to surface "constant/triSurface/STL_Files/30.stl" ...
    Marked inside/outside using surface intersection in = 0.81 s

    cellZoneSet zone30 now size 8
Created cellZoneSet zone31
    Applying source surfaceToCell
    Adding cells in relation to surface "constant/triSurface/STL_Files/31.stl" ...
    Marked inside/outside using surface intersection in = 0.83 s

    cellZoneSet zone31 now size 6
Created cellZoneSet zone32
    Applying source surfaceToCell
    Adding cells in relation to surface "constant/triSurface/STL_Files/32.stl" ...
    Marked inside/outside using surface intersection in = 0.85 s

    cellZoneSet zone32 now size 8
Created cellZoneSet zone33
    Applying source surfaceToCell
    Adding cells in relation to surface "constant/triSurface/STL_Files/33.stl" ...
    Marked inside/outside using surface intersection in = 0.81 s

    cellZoneSet zone33 now size 8
Created cellZoneSet zone34
    Applying source surfaceToCell
    Adding cells in relation to surface "constant/triSurface/STL_Files/34.stl" ...
    Marked inside/outside using surface intersection in = 0.86 s

    cellZoneSet zone34 now size 6
Created cellZoneSet zone35
    Applying source surfaceToCell
    Adding cells in relation to surface "constant/triSurface/STL_Files/35.stl" ...
    Marked inside/outside using surface intersection in = 0.82 s

    cellZoneSet zone35 now size 5
Created cellZoneSet zone36
    Applying source surfaceToCell
    Adding cells in relation to surface "constant/triSurface/STL_Files/36.stl" ...
    Marked inside/outside using surface intersection in = 0.83 s

    cellZoneSet zone36 now size 8
Created cellZoneSet zone37
    Applying source surfaceToCell
    Adding cells in relation to surface "constant/triSurface/STL_Files/37.stl" ...
    Marked inside/outside using surface intersection in = 0.91 s

    cellZoneSet zone37 now size 8
Created cellZoneSet zone38
    Applying source surfaceToCell
    Adding cells in relation to surface "constant/triSurface/STL_Files/38.stl" ...
    Marked inside/outside using surface intersection in = 0.89 s

    cellZoneSet zone38 now size 10
Created cellZoneSet zone39
    Applying source surfaceToCell
    Adding cells in relation to surface "constant/triSurface/STL_Files/39.stl" ...
    Marked inside/outside using surface intersection in = 0.82 s

    cellZoneSet zone39 now size 11
Created cellZoneSet zone40
    Applying source surfaceToCell
    Adding cells in relation to surface "constant/triSurface/STL_Files/40.stl" ...
    Marked inside/outside using surface intersection in = 0.9 s

    cellZoneSet zone40 now size 9
Created cellZoneSet zone41
    Applying source surfaceToCell
    Adding cells in relation to surface "constant/triSurface/STL_Files/41.stl" ...
    Marked inside/outside using surface intersection in = 0.84 s

    cellZoneSet zone41 now size 7
Created cellZoneSet zone42
    Applying source surfaceToCell
    Adding cells in relation to surface "constant/triSurface/STL_Files/42.stl" ...
    Marked inside/outside using surface intersection in = 0.81 s

    cellZoneSet zone42 now size 22
Created cellZoneSet zone43
    Applying source surfaceToCell
    Adding cells in relation to surface "constant/triSurface/STL_Files/43.stl" ...
    Marked inside/outside using surface intersection in = 0.79 s

    cellZoneSet zone43 now size 9
Created cellZoneSet zone44
    Applying source surfaceToCell
    Adding cells in relation to surface "constant/triSurface/STL_Files/44.stl" ...
    Marked inside/outside using surface intersection in = 0.85 s

    cellZoneSet zone44 now size 9
Created cellZoneSet zone45
    Applying source surfaceToCell
    Adding cells in relation to surface "constant/triSurface/STL_Files/45.stl" ...
    Marked inside/outside using surface intersection in = 0.85 s

    cellZoneSet zone45 now size 6
Created cellZoneSet zone46
    Applying source surfaceToCell
    Adding cells in relation to surface "constant/triSurface/STL_Files/46.stl" ...
    Marked inside/outside using surface intersection in = 0.81 s

    cellZoneSet zone46 now size 9
Created cellZoneSet zone47
    Applying source surfaceToCell
    Adding cells in relation to surface "constant/triSurface/STL_Files/47.stl" ...
    Marked inside/outside using surface intersection in = 0.81 s

    cellZoneSet zone47 now size 10
Created cellZoneSet zone48
    Applying source surfaceToCell
    Adding cells in relation to surface "constant/triSurface/STL_Files/48.stl" ...
    Marked inside/outside using surface intersection in = 0.85 s

    cellZoneSet zone48 now size 9
Created cellZoneSet zone49
    Applying source surfaceToCell
    Adding cells in relation to surface "constant/triSurface/STL_Files/49.stl" ...
    Marked inside/outside using surface intersection in = 0.88 s

    cellZoneSet zone49 now size 11
Created cellZoneSet zone50
    Applying source surfaceToCell
    Adding cells in relation to surface "constant/triSurface/STL_Files/50.stl" ...
    Marked inside/outside using surface intersection in = 0.81 s

    cellZoneSet zone50 now size 10
Created cellZoneSet zone51
    Applying source surfaceToCell
    Adding cells in relation to surface "constant/triSurface/STL_Files/51.stl" ...
    Marked inside/outside using surface intersection in = 0.87 s

    cellZoneSet zone51 now size 9
Created cellZoneSet zone52
    Applying source surfaceToCell
    Adding cells in relation to surface "constant/triSurface/STL_Files/52.stl" ...
    Marked inside/outside using surface intersection in = 0.84 s

    cellZoneSet zone52 now size 10
Created cellZoneSet zone53
    Applying source surfaceToCell
    Adding cells in relation to surface "constant/triSurface/STL_Files/53.stl" ...
    Marked inside/outside using surface intersection in = 0.86 s

    cellZoneSet zone53 now size 6
Created cellZoneSet zone54
    Applying source surfaceToCell
    Adding cells in relation to surface "constant/triSurface/STL_Files/54.stl" ...
    Marked inside/outside using surface intersection in = 0.82 s

    cellZoneSet zone54 now size 11
Created cellZoneSet zone55
    Applying source surfaceToCell
    Adding cells in relation to surface "constant/triSurface/STL_Files/55.stl" ...
    Marked inside/outside using surface intersection in = 0.82 s

    cellZoneSet zone55 now size 9
Created cellZoneSet zone56
    Applying source surfaceToCell
    Adding cells in relation to surface "constant/triSurface/STL_Files/56.stl" ...
    Marked inside/outside using surface intersection in = 0.84 s

    cellZoneSet zone56 now size 10
Created cellZoneSet zone57
    Applying source surfaceToCell
    Adding cells in relation to surface "constant/triSurface/STL_Files/57.stl" ...
    Marked inside/outside using surface intersection in = 0.8 s

    cellZoneSet zone57 now size 10
Created cellZoneSet zone58
    Applying source surfaceToCell
    Adding cells in relation to surface "constant/triSurface/STL_Files/58.stl" ...
    Marked inside/outside using surface intersection in = 0.81 s

    cellZoneSet zone58 now size 10
Created cellZoneSet zone59
    Applying source surfaceToCell
    Adding cells in relation to surface "constant/triSurface/STL_Files/59.stl" ...
    Marked inside/outside using surface intersection in = 0.87 s

    cellZoneSet zone59 now size 6
Created cellZoneSet zone60
    Applying source surfaceToCell
    Adding cells in relation to surface "constant/triSurface/STL_Files/60.stl" ...
    Marked inside/outside using surface intersection in = 0.84 s

    cellZoneSet zone60 now size 6
Created cellZoneSet zone61
    Applying source surfaceToCell
    Adding cells in relation to surface "constant/triSurface/STL_Files/61.stl" ...
    Marked inside/outside using surface intersection in = 0.83 s

    cellZoneSet zone61 now size 8
Created cellZoneSet zone62
    Applying source surfaceToCell
    Adding cells in relation to surface "constant/triSurface/STL_Files/62.stl" ...
    Marked inside/outside using surface intersection in = 0.82 s

    cellZoneSet zone62 now size 8
Created cellZoneSet zone63
    Applying source surfaceToCell
    Adding cells in relation to surface "constant/triSurface/STL_Files/63.stl" ...
    Marked inside/outside using surface intersection in = 0.87 s

    cellZoneSet zone63 now size 6
Created cellZoneSet zone64
    Applying source surfaceToCell
    Adding cells in relation to surface "constant/triSurface/STL_Files/64.stl" ...
    Marked inside/outside using surface intersection in = 0.87 s

    cellZoneSet zone64 now size 11
Created cellZoneSet zone65
    Applying source surfaceToCell
    Adding cells in relation to surface "constant/triSurface/STL_Files/65.stl" ...
    Marked inside/outside using surface intersection in = 0.85 s

    cellZoneSet zone65 now size 8
Created cellZoneSet zone66
    Applying source surfaceToCell
    Adding cells in relation to surface "constant/triSurface/STL_Files/66.stl" ...
    Marked inside/outside using surface intersection in = 0.8 s

    cellZoneSet zone66 now size 4
Created cellZoneSet zone67
    Applying source surfaceToCell
    Adding cells in relation to surface "constant/triSurface/STL_Files/67.stl" ...
    Marked inside/outside using surface intersection in = 0.84 s

    cellZoneSet zone67 now size 8
Created cellZoneSet zone68
    Applying source surfaceToCell
    Adding cells in relation to surface "constant/triSurface/STL_Files/68.stl" ...
    Marked inside/outside using surface intersection in = 0.81 s

    cellZoneSet zone68 now size 11
Created cellZoneSet zone69
    Applying source surfaceToCell
    Adding cells in relation to surface "constant/triSurface/STL_Files/69.stl" ...
    Marked inside/outside using surface intersection in = 0.85 s

    cellZoneSet zone69 now size 11
Created cellZoneSet zone70
    Applying source surfaceToCell
    Adding cells in relation to surface "constant/triSurface/STL_Files/70.stl" ...
    Marked inside/outside using surface intersection in = 0.87 s

    cellZoneSet zone70 now size 11
Created cellZoneSet zone71
    Applying source surfaceToCell
    Adding cells in relation to surface "constant/triSurface/STL_Files/71.stl" ...
    Marked inside/outside using surface intersection in = 0.82 s

    cellZoneSet zone71 now size 7
Created cellZoneSet zone72
    Applying source surfaceToCell
    Adding cells in relation to surface "constant/triSurface/STL_Files/72.stl" ...
    Marked inside/outside using surface intersection in = 0.77 s

    cellZoneSet zone72 now size 14
Created cellZoneSet zone73
    Applying source surfaceToCell
    Adding cells in relation to surface "constant/triSurface/STL_Files/73.stl" ...
    Marked inside/outside using surface intersection in = 0.8 s

    cellZoneSet zone73 now size 6
Created cellZoneSet zone74
    Applying source surfaceToCell
    Adding cells in relation to surface "constant/triSurface/STL_Files/74.stl" ...
    Marked inside/outside using surface intersection in = 0.84 s

    cellZoneSet zone74 now size 9
Created cellZoneSet zone75
    Applying source surfaceToCell
    Adding cells in relation to surface "constant/triSurface/STL_Files/75.stl" ...
    Marked inside/outside using surface intersection in = 0.85 s

    cellZoneSet zone75 now size 6
Created cellZoneSet zone76
    Applying source surfaceToCell
    Adding cells in relation to surface "constant/triSurface/STL_Files/76.stl" ...
    Marked inside/outside using surface intersection in = 0.82 s

    cellZoneSet zone76 now size 8
Created cellZoneSet zone77
    Applying source surfaceToCell
    Adding cells in relation to surface "constant/triSurface/STL_Files/77.stl" ...
    Marked inside/outside using surface intersection in = 0.83 s

    cellZoneSet zone77 now size 9
Created cellZoneSet zone78
    Applying source surfaceToCell
    Adding cells in relation to surface "constant/triSurface/STL_Files/78.stl" ...
    Marked inside/outside using surface intersection in = 0.79 s

    cellZoneSet zone78 now size 7
Created cellZoneSet zone79
    Applying source surfaceToCell
    Adding cells in relation to surface "constant/triSurface/STL_Files/79.stl" ...
    Marked inside/outside using surface intersection in = 0.8 s

    cellZoneSet zone79 now size 9
Created cellZoneSet zone80
    Applying source surfaceToCell
    Adding cells in relation to surface "constant/triSurface/STL_Files/80.stl" ...
    Marked inside/outside using surface intersection in = 0.83 s

    cellZoneSet zone80 now size 10
Created cellZoneSet zone81
    Applying source surfaceToCell
    Adding cells in relation to surface "constant/triSurface/STL_Files/81.stl" ...
    Marked inside/outside using surface intersection in = 0.83 s

    cellZoneSet zone81 now size 8
Created cellZoneSet zone82
    Applying source surfaceToCell
    Adding cells in relation to surface "constant/triSurface/STL_Files/82.stl" ...
    Marked inside/outside using surface intersection in = 0.85 s

    cellZoneSet zone82 now size 6
Created cellZoneSet zone83
    Applying source surfaceToCell
    Adding cells in relation to surface "constant/triSurface/STL_Files/83.stl" ...
    Marked inside/outside using surface intersection in = 0.79 s

    cellZoneSet zone83 now size 9
Created cellZoneSet zone84
    Applying source surfaceToCell
    Adding cells in relation to surface "constant/triSurface/STL_Files/84.stl" ...
    Marked inside/outside using surface intersection in = 0.86 s

    cellZoneSet zone84 now size 10
Created cellZoneSet zone85
    Applying source surfaceToCell
    Adding cells in relation to surface "constant/triSurface/STL_Files/85.stl" ...
    Marked inside/outside using surface intersection in = 0.81 s

    cellZoneSet zone85 now size 9
Created cellZoneSet zone86
    Applying source surfaceToCell
    Adding cells in relation to surface "constant/triSurface/STL_Files/86.stl" ...
    Marked inside/outside using surface intersection in = 0.8 s

    cellZoneSet zone86 now size 9
Created cellZoneSet zone87
    Applying source surfaceToCell
    Adding cells in relation to surface "constant/triSurface/STL_Files/87.stl" ...
    Marked inside/outside using surface intersection in = 0.83 s

    cellZoneSet zone87 now size 5
Created cellZoneSet zone88
    Applying source surfaceToCell
    Adding cells in relation to surface "constant/triSurface/STL_Files/88.stl" ...
    Marked inside/outside using surface intersection in = 0.88 s

    cellZoneSet zone88 now size 8
Created cellZoneSet zone89
    Applying source surfaceToCell
    Adding cells in relation to surface "constant/triSurface/STL_Files/89.stl" ...
    Marked inside/outside using surface intersection in = 0.79 s

    cellZoneSet zone89 now size 6
Created cellZoneSet zone90
    Applying source surfaceToCell
    Adding cells in relation to surface "constant/triSurface/STL_Files/90.stl" ...
    Marked inside/outside using surface intersection in = 0.84 s

    cellZoneSet zone90 now size 8
Created cellZoneSet zone91
    Applying source surfaceToCell
    Adding cells in relation to surface "constant/triSurface/STL_Files/91.stl" ...
    Marked inside/outside using surface intersection in = 0.86 s

    cellZoneSet zone91 now size 6
Created cellZoneSet zone92
    Applying source surfaceToCell
    Adding cells in relation to surface "constant/triSurface/STL_Files/92.stl" ...
    Marked inside/outside using surface intersection in = 0.85 s

    cellZoneSet zone92 now size 8
Created cellZoneSet zone93
    Applying source surfaceToCell
    Adding cells in relation to surface "constant/triSurface/STL_Files/93.stl" ...
    Marked inside/outside using surface intersection in = 0.9 s

    cellZoneSet zone93 now size 7
Created cellZoneSet zone94
    Applying source surfaceToCell
    Adding cells in relation to surface "constant/triSurface/STL_Files/94.stl" ...
    Marked inside/outside using surface intersection in = 0.79 s

    cellZoneSet zone94 now size 4
Created cellZoneSet zone95
    Applying source surfaceToCell
    Adding cells in relation to surface "constant/triSurface/STL_Files/95.stl" ...
    Marked inside/outside using surface intersection in = 0.8 s

    cellZoneSet zone95 now size 10
Created cellZoneSet zone96
    Applying source surfaceToCell
    Adding cells in relation to surface "constant/triSurface/STL_Files/96.stl" ...
    Marked inside/outside using surface intersection in = 0.86 s

    cellZoneSet zone96 now size 9
Created cellZoneSet zone97
    Applying source surfaceToCell
    Adding cells in relation to surface "constant/triSurface/STL_Files/97.stl" ...
    Marked inside/outside using surface intersection in = 0.87 s

    cellZoneSet zone97 now size 9
Created cellZoneSet zone98
    Applying source surfaceToCell
    Adding cells in relation to surface "constant/triSurface/STL_Files/98.stl" ...
    Marked inside/outside using surface intersection in = 0.83 s

    cellZoneSet zone98 now size 12
Created cellZoneSet zone99
    Applying source surfaceToCell
    Adding cells in relation to surface "constant/triSurface/STL_Files/99.stl" ...
    Marked inside/outside using surface intersection in = 0.77 s

    cellZoneSet zone99 now size 9
Created cellZoneSet zone100
    Applying source surfaceToCell
    Adding cells in relation to surface "constant/triSurface/STL_Files/100.stl" ...
    Marked inside/outside using surface intersection in = 0.83 s

    cellZoneSet zone100 now size 9
Created cellZoneSet zone101
    Applying source surfaceToCell
    Adding cells in relation to surface "constant/triSurface/STL_Files/101.stl" ...
    Marked inside/outside using surface intersection in = 0.85 s

    cellZoneSet zone101 now size 10
Created cellZoneSet zone102
    Applying source surfaceToCell
    Adding cells in relation to surface "constant/triSurface/STL_Files/102.stl" ...
    Marked inside/outside using surface intersection in = 0.87 s

    cellZoneSet zone102 now size 21
Created cellZoneSet zone103
    Applying source surfaceToCell
    Adding cells in relation to surface "constant/triSurface/STL_Files/103.stl" ...
    Marked inside/outside using surface intersection in = 0.84 s

    cellZoneSet zone103 now size 6
Created cellZoneSet zone104
    Applying source surfaceToCell
    Adding cells in relation to surface "constant/triSurface/STL_Files/104.stl" ...
    Marked inside/outside using surface intersection in = 0.83 s

    cellZoneSet zone104 now size 9
Created cellZoneSet zone105
    Applying source surfaceToCell
    Adding cells in relation to surface "constant/triSurface/STL_Files/105.stl" ...
    Marked inside/outside using surface intersection in = 0.86 s

    cellZoneSet zone105 now size 6
Created cellZoneSet zone106
    Applying source surfaceToCell
    Adding cells in relation to surface "constant/triSurface/STL_Files/106.stl" ...
    Marked inside/outside using surface intersection in = 0.84 s

    cellZoneSet zone106 now size 8
Created cellZoneSet zone107
    Applying source surfaceToCell
    Adding cells in relation to surface "constant/triSurface/STL_Files/107.stl" ...
    Marked inside/outside using surface intersection in = 0.83 s

    cellZoneSet zone107 now size 9
Created cellZoneSet zone108
    Applying source surfaceToCell
    Adding cells in relation to surface "constant/triSurface/STL_Files/108.stl" ...
    Marked inside/outside using surface intersection in = 0.87 s

    cellZoneSet zone108 now size 7
Created cellZoneSet zone109
    Applying source surfaceToCell
    Adding cells in relation to surface "constant/triSurface/STL_Files/109.stl" ...
    Marked inside/outside using surface intersection in = 0.8 s

    cellZoneSet zone109 now size 8
Created cellZoneSet zone110
    Applying source surfaceToCell
    Adding cells in relation to surface "constant/triSurface/STL_Files/110.stl" ...
    Marked inside/outside using surface intersection in = 0.87 s

    cellZoneSet zone110 now size 11
Created cellZoneSet zone111
    Applying source surfaceToCell
    Adding cells in relation to surface "constant/triSurface/STL_Files/111.stl" ...
    Marked inside/outside using surface intersection in = 0.79 s

    cellZoneSet zone111 now size 11
Created cellZoneSet zone112
    Applying source surfaceToCell
    Adding cells in relation to surface "constant/triSurface/STL_Files/112.stl" ...
    Marked inside/outside using surface intersection in = 0.82 s

    cellZoneSet zone112 now size 9
Created cellZoneSet zone113
    Applying source surfaceToCell
    Adding cells in relation to surface "constant/triSurface/STL_Files/113.stl" ...
    Marked inside/outside using surface intersection in = 0.83 s

    cellZoneSet zone113 now size 8
Created cellZoneSet zone114
    Applying source surfaceToCell
    Adding cells in relation to surface "constant/triSurface/STL_Files/114.stl" ...
    Marked inside/outside using surface intersection in = 0.86 s

    cellZoneSet zone114 now size 5
Created cellZoneSet zone115
    Applying source surfaceToCell
    Adding cells in relation to surface "constant/triSurface/STL_Files/115.stl" ...
    Marked inside/outside using surface intersection in = 0.82 s

    cellZoneSet zone115 now size 7
Created cellZoneSet zone116
    Applying source surfaceToCell
    Adding cells in relation to surface "constant/triSurface/STL_Files/116.stl" ...
    Marked inside/outside using surface intersection in = 0.91 s

    cellZoneSet zone116 now size 9
Created cellZoneSet zone117
    Applying source surfaceToCell
    Adding cells in relation to surface "constant/triSurface/STL_Files/117.stl" ...
    Marked inside/outside using surface intersection in = 0.79 s

    cellZoneSet zone117 now size 6
Created cellZoneSet zone118
    Applying source surfaceToCell
    Adding cells in relation to surface "constant/triSurface/STL_Files/118.stl" ...
    Marked inside/outside using surface intersection in = 0.86 s

    cellZoneSet zone118 now size 11
Created cellZoneSet zone119
    Applying source surfaceToCell
    Adding cells in relation to surface "constant/triSurface/STL_Files/119.stl" ...
    Marked inside/outside using surface intersection in = 0.83 s

    cellZoneSet zone119 now size 6
Created cellZoneSet zone120
    Applying source surfaceToCell
    Adding cells in relation to surface "constant/triSurface/STL_Files/120.stl" ...
    Marked inside/outside using surface intersection in = 0.81 s

    cellZoneSet zone120 now size 6
Created cellZoneSet zone121
    Applying source surfaceToCell
    Adding cells in relation to surface "constant/triSurface/STL_Files/121.stl" ...
    Marked inside/outside using surface intersection in = 0.84 s

    cellZoneSet zone121 now size 11
Created cellZoneSet zone122
    Applying source surfaceToCell
    Adding cells in relation to surface "constant/triSurface/STL_Files/122.stl" ...
    Marked inside/outside using surface intersection in = 0.81 s

    cellZoneSet zone122 now size 10
Created cellZoneSet zone123
    Applying source surfaceToCell
    Adding cells in relation to surface "constant/triSurface/STL_Files/123.stl" ...
    Marked inside/outside using surface intersection in = 0.85 s

    cellZoneSet zone123 now size 7
Created cellZoneSet zone124
    Applying source surfaceToCell
    Adding cells in relation to surface "constant/triSurface/STL_Files/124.stl" ...
    Marked inside/outside using surface intersection in = 0.83 s

    cellZoneSet zone124 now size 7
Created cellZoneSet zone125
    Applying source surfaceToCell
    Adding cells in relation to surface "constant/triSurface/STL_Files/125.stl" ...
    Marked inside/outside using surface intersection in = 0.84 s

    cellZoneSet zone125 now size 9
Created cellZoneSet zone126
    Applying source surfaceToCell
    Adding cells in relation to surface "constant/triSurface/STL_Files/126.stl" ...
    Marked inside/outside using surface intersection in = 0.83 s

    cellZoneSet zone126 now size 11
Created cellZoneSet zone127
    Applying source surfaceToCell
    Adding cells in relation to surface "constant/triSurface/STL_Files/127.stl" ...
    Marked inside/outside using surface intersection in = 0.84 s

    cellZoneSet zone127 now size 11
Created cellZoneSet zone128
    Applying source surfaceToCell
    Adding cells in relation to surface "constant/triSurface/STL_Files/128.stl" ...
    Marked inside/outside using surface intersection in = 0.86 s

    cellZoneSet zone128 now size 10
Created cellZoneSet zone129
    Applying source surfaceToCell
    Adding cells in relation to surface "constant/triSurface/STL_Files/129.stl" ...
    Marked inside/outside using surface intersection in = 0.79 s

    cellZoneSet zone129 now size 8
Created cellZoneSet zone130
    Applying source surfaceToCell
    Adding cells in relation to surface "constant/triSurface/STL_Files/130.stl" ...
    Marked inside/outside using surface intersection in = 0.78 s

    cellZoneSet zone130 now size 7
Created cellZoneSet zone131
    Applying source surfaceToCell
    Adding cells in relation to surface "constant/triSurface/STL_Files/131.stl" ...
    Marked inside/outside using surface intersection in = 0.82 s

    cellZoneSet zone131 now size 14
Created cellZoneSet zone132
    Applying source surfaceToCell
    Adding cells in relation to surface "constant/triSurface/STL_Files/132.stl" ...
    Marked inside/outside using surface intersection in = 0.81 s

    cellZoneSet zone132 now size 16
Created cellZoneSet zone133
    Applying source surfaceToCell
    Adding cells in relation to surface "constant/triSurface/STL_Files/133.stl" ...
    Marked inside/outside using surface intersection in = 0.84 s

    cellZoneSet zone133 now size 8
Created cellZoneSet zone134
    Applying source surfaceToCell
    Adding cells in relation to surface "constant/triSurface/STL_Files/134.stl" ...
    Marked inside/outside using surface intersection in = 0.85 s

    cellZoneSet zone134 now size 9
Created cellZoneSet zone135
    Applying source surfaceToCell
    Adding cells in relation to surface "constant/triSurface/STL_Files/135.stl" ...
    Marked inside/outside using surface intersection in = 0.79 s

    cellZoneSet zone135 now size 6
Created cellZoneSet zone136
    Applying source surfaceToCell
    Adding cells in relation to surface "constant/triSurface/STL_Files/136.stl" ...
    Marked inside/outside using surface intersection in = 0.9 s

    cellZoneSet zone136 now size 7
Created cellZoneSet zone137
    Applying source surfaceToCell
    Adding cells in relation to surface "constant/triSurface/STL_Files/137.stl" ...
    Marked inside/outside using surface intersection in = 0.85 s

    cellZoneSet zone137 now size 9
Created cellZoneSet zone138
    Applying source surfaceToCell
    Adding cells in relation to surface "constant/triSurface/STL_Files/138.stl" ...
    Marked inside/outside using surface intersection in = 0.85 s

    cellZoneSet zone138 now size 9
Created cellZoneSet zone139
    Applying source surfaceToCell
    Adding cells in relation to surface "constant/triSurface/STL_Files/139.stl" ...
    Marked inside/outside using surface intersection in = 0.83 s

    cellZoneSet zone139 now size 13
Created cellZoneSet zone140
    Applying source surfaceToCell
    Adding cells in relation to surface "constant/triSurface/STL_Files/140.stl" ...
    Marked inside/outside using surface intersection in = 0.8 s

    cellZoneSet zone140 now size 10
Created cellZoneSet zone141
    Applying source surfaceToCell
    Adding cells in relation to surface "constant/triSurface/STL_Files/141.stl" ...
    Marked inside/outside using surface intersection in = 0.85 s

    cellZoneSet zone141 now size 9
Created cellZoneSet zone142
    Applying source surfaceToCell
    Adding cells in relation to surface "constant/triSurface/STL_Files/142.stl" ...
    Marked inside/outside using surface intersection in = 0.79 s

    cellZoneSet zone142 now size 11
Created cellZoneSet zone143
    Applying source surfaceToCell
    Adding cells in relation to surface "constant/triSurface/STL_Files/143.stl" ...
    Marked inside/outside using surface intersection in = 0.84 s

    cellZoneSet zone143 now size 7
Created cellZoneSet zone144
    Applying source surfaceToCell
    Adding cells in relation to surface "constant/triSurface/STL_Files/144.stl" ...
    Marked inside/outside using surface intersection in = 0.84 s

    cellZoneSet zone144 now size 10
Created cellZoneSet zone145
    Applying source surfaceToCell
    Adding cells in relation to surface "constant/triSurface/STL_Files/145.stl" ...
    Marked inside/outside using surface intersection in = 0.85 s

    cellZoneSet zone145 now size 10
Created cellZoneSet zone146
    Applying source surfaceToCell
    Adding cells in relation to surface "constant/triSurface/STL_Files/146.stl" ...
    Marked inside/outside using surface intersection in = 0.81 s

    cellZoneSet zone146 now size 10
Created cellZoneSet zone147
    Applying source surfaceToCell
    Adding cells in relation to surface "constant/triSurface/STL_Files/147.stl" ...
    Marked inside/outside using surface intersection in = 0.91 s

    cellZoneSet zone147 now size 10
Created cellZoneSet zone148
    Applying source surfaceToCell
    Adding cells in relation to surface "constant/triSurface/STL_Files/148.stl" ...
    Marked inside/outside using surface intersection in = 0.83 s

    cellZoneSet zone148 now size 12
Created cellZoneSet zone149
    Applying source surfaceToCell
    Adding cells in relation to surface "constant/triSurface/STL_Files/149.stl" ...
    Marked inside/outside using surface intersection in = 0.84 s

    cellZoneSet zone149 now size 6
Created cellZoneSet zone150
    Applying source surfaceToCell
    Adding cells in relation to surface "constant/triSurface/STL_Files/150.stl" ...
    Marked inside/outside using surface intersection in = 0.83 s

    cellZoneSet zone150 now size 8
Created cellZoneSet zone151
    Applying source surfaceToCell
    Adding cells in relation to surface "constant/triSurface/STL_Files/151.stl" ...
    Marked inside/outside using surface intersection in = 0.81 s

    cellZoneSet zone151 now size 6
Created cellZoneSet zone152
    Applying source surfaceToCell
    Adding cells in relation to surface "constant/triSurface/STL_Files/152.stl" ...
    Marked inside/outside using surface intersection in = 0.81 s

    cellZoneSet zone152 now size 8
Created cellZoneSet zone153
    Applying source surfaceToCell
    Adding cells in relation to surface "constant/triSurface/STL_Files/153.stl" ...
    Marked inside/outside using surface intersection in = 0.84 s

    cellZoneSet zone153 now size 9
Created cellZoneSet zone154
    Applying source surfaceToCell
    Adding cells in relation to surface "constant/triSurface/STL_Files/154.stl" ...
    Marked inside/outside using surface intersection in = 0.83 s

    cellZoneSet zone154 now size 10
Created cellZoneSet zone155
    Applying source surfaceToCell
    Adding cells in relation to surface "constant/triSurface/STL_Files/155.stl" ...
    Marked inside/outside using surface intersection in = 0.82 s

    cellZoneSet zone155 now size 12
Created cellZoneSet zone156
    Applying source surfaceToCell
    Adding cells in relation to surface "constant/triSurface/STL_Files/156.stl" ...
    Marked inside/outside using surface intersection in = 0.84 s

    cellZoneSet zone156 now size 12
Created cellZoneSet zone157
    Applying source surfaceToCell
    Adding cells in relation to surface "constant/triSurface/STL_Files/157.stl" ...
    Marked inside/outside using surface intersection in = 0.78 s

    cellZoneSet zone157 now size 10
Created cellZoneSet zone158
    Applying source surfaceToCell
    Adding cells in relation to surface "constant/triSurface/STL_Files/158.stl" ...
    Marked inside/outside using surface intersection in = 0.81 s

    cellZoneSet zone158 now size 8
Created cellZoneSet zone159
    Applying source surfaceToCell
    Adding cells in relation to surface "constant/triSurface/STL_Files/159.stl" ...
    Marked inside/outside using surface intersection in = 0.88 s

    cellZoneSet zone159 now size 8
Created cellZoneSet zone160
    Applying source surfaceToCell
    Adding cells in relation to surface "constant/triSurface/STL_Files/160.stl" ...
    Marked inside/outside using surface intersection in = 0.87 s

    cellZoneSet zone160 now size 10
Created cellZoneSet zone161
    Applying source surfaceToCell
    Adding cells in relation to surface "constant/triSurface/STL_Files/161.stl" ...
    Marked inside/outside using surface intersection in = 0.88 s

    cellZoneSet zone161 now size 12
Created cellZoneSet zone162
    Applying source surfaceToCell
    Adding cells in relation to surface "constant/triSurface/STL_Files/162.stl" ...
    Marked inside/outside using surface intersection in = 0.88 s

    cellZoneSet zone162 now size 22
Created cellZoneSet zone163
    Applying source surfaceToCell
    Adding cells in relation to surface "constant/triSurface/STL_Files/163.stl" ...
    Marked inside/outside using surface intersection in = 0.84 s

    cellZoneSet zone163 now size 8
Created cellZoneSet zone164
    Applying source surfaceToCell
    Adding cells in relation to surface "constant/triSurface/STL_Files/164.stl" ...
    Marked inside/outside using surface intersection in = 0.82 s

    cellZoneSet zone164 now size 9
Created cellZoneSet zone165
    Applying source surfaceToCell
    Adding cells in relation to surface "constant/triSurface/STL_Files/165.stl" ...
    Marked inside/outside using surface intersection in = 0.81 s

    cellZoneSet zone165 now size 6
Created cellZoneSet zone166
    Applying source surfaceToCell
    Adding cells in relation to surface "constant/triSurface/STL_Files/166.stl" ...
    Marked inside/outside using surface intersection in = 0.79 s

    cellZoneSet zone166 now size 7
Created cellZoneSet zone167
    Applying source surfaceToCell
    Adding cells in relation to surface "constant/triSurface/STL_Files/167.stl" ...
    Marked inside/outside using surface intersection in = 0.83 s

    cellZoneSet zone167 now size 8
Created cellZoneSet zone168
    Applying source surfaceToCell
    Adding cells in relation to surface "constant/triSurface/STL_Files/168.stl" ...
    Marked inside/outside using surface intersection in = 0.82 s

    cellZoneSet zone168 now size 9
Created cellZoneSet zone169
    Applying source surfaceToCell
    Adding cells in relation to surface "constant/triSurface/STL_Files/169.stl" ...
    Marked inside/outside using surface intersection in = 0.82 s

    cellZoneSet zone169 now size 13
Created cellZoneSet zone170
    Applying source surfaceToCell
    Adding cells in relation to surface "constant/triSurface/STL_Files/170.stl" ...
    Marked inside/outside using surface intersection in = 0.8 s

    cellZoneSet zone170 now size 7
Created cellZoneSet zone171
    Applying source surfaceToCell
    Adding cells in relation to surface "constant/triSurface/STL_Files/171.stl" ...
    Marked inside/outside using surface intersection in = 0.88 s

    cellZoneSet zone171 now size 10
Created cellZoneSet zone172
    Applying source surfaceToCell
    Adding cells in relation to surface "constant/triSurface/STL_Files/172.stl" ...
    Marked inside/outside using surface intersection in = 0.89 s

    cellZoneSet zone172 now size 11
Created cellZoneSet zone173
    Applying source surfaceToCell
    Adding cells in relation to surface "constant/triSurface/STL_Files/173.stl" ...
    Marked inside/outside using surface intersection in = 0.85 s

    cellZoneSet zone173 now size 13
Created cellZoneSet zone174
    Applying source surfaceToCell
    Adding cells in relation to surface "constant/triSurface/STL_Files/174.stl" ...
    Marked inside/outside using surface intersection in = 0.81 s

    cellZoneSet zone174 now size 11
Created cellZoneSet zone175
    Applying source surfaceToCell
    Adding cells in relation to surface "constant/triSurface/STL_Files/175.stl" ...
    Marked inside/outside using surface intersection in = 0.85 s

    cellZoneSet zone175 now size 8
Created cellZoneSet zone176
    Applying source surfaceToCell
    Adding cells in relation to surface "constant/triSurface/STL_Files/176.stl" ...
    Marked inside/outside using surface intersection in = 0.85 s

    cellZoneSet zone176 now size 6
Created cellZoneSet zone177
    Applying source surfaceToCell
    Adding cells in relation to surface "constant/triSurface/STL_Files/177.stl" ...
    Marked inside/outside using surface intersection in = 0.78 s

    cellZoneSet zone177 now size 6
Created cellZoneSet zone178
    Applying source surfaceToCell
    Adding cells in relation to surface "constant/triSurface/STL_Files/178.stl" ...
    Marked inside/outside using surface intersection in = 0.83 s

    cellZoneSet zone178 now size 10
Created cellZoneSet zone179
    Applying source surfaceToCell
    Adding cells in relation to surface "constant/triSurface/STL_Files/179.stl" ...
    Marked inside/outside using surface intersection in = 0.85 s

    cellZoneSet zone179 now size 9
Created cellZoneSet zone180
    Applying source surfaceToCell
    Adding cells in relation to surface "constant/triSurface/STL_Files/180.stl" ...
    Marked inside/outside using surface intersection in = 0.84 s

    cellZoneSet zone180 now size 6
Created cellZoneSet zone181
    Applying source surfaceToCell
    Adding cells in relation to surface "constant/triSurface/STL_Files/181.stl" ...
    Marked inside/outside using surface intersection in = 0.81 s

    cellZoneSet zone181 now size 4
Created cellZoneSet zone182
    Applying source surfaceToCell
    Adding cells in relation to surface "constant/triSurface/STL_Files/182.stl" ...
    Marked inside/outside using surface intersection in = 0.82 s

    cellZoneSet zone182 now size 7
Created cellZoneSet zone183
    Applying source surfaceToCell
    Adding cells in relation to surface "constant/triSurface/STL_Files/183.stl" ...
    Marked inside/outside using surface intersection in = 0.82 s

    cellZoneSet zone183 now size 11
Created cellZoneSet zone184
    Applying source surfaceToCell
    Adding cells in relation to surface "constant/triSurface/STL_Files/184.stl" ...
    Marked inside/outside using surface intersection in = 0.8 s

    cellZoneSet zone184 now size 11
Created cellZoneSet zone185
    Applying source surfaceToCell
    Adding cells in relation to surface "constant/triSurface/STL_Files/185.stl" ...
    Marked inside/outside using surface intersection in = 0.85 s

    cellZoneSet zone185 now size 11
Created cellZoneSet zone186
    Applying source surfaceToCell
    Adding cells in relation to surface "constant/triSurface/STL_Files/186.stl" ...
    Marked inside/outside using surface intersection in = 0.83 s

    cellZoneSet zone186 now size 8
Created cellZoneSet zone187
    Applying source surfaceToCell
    Adding cells in relation to surface "constant/triSurface/STL_Files/187.stl" ...
    Marked inside/outside using surface intersection in = 0.8 s

    cellZoneSet zone187 now size 11
Created cellZoneSet zone188
    Applying source surfaceToCell
    Adding cells in relation to surface "constant/triSurface/STL_Files/188.stl" ...
    Marked inside/outside using surface intersection in = 0.83 s

    cellZoneSet zone188 now size 9
Created cellZoneSet zone189
    Applying source surfaceToCell
    Adding cells in relation to surface "constant/triSurface/STL_Files/189.stl" ...
    Marked inside/outside using surface intersection in = 0.8 s

    cellZoneSet zone189 now size 7
Created cellZoneSet zone190
    Applying source surfaceToCell
    Adding cells in relation to surface "constant/triSurface/STL_Files/190.stl" ...
    Marked inside/outside using surface intersection in = 0.84 s

    cellZoneSet zone190 now size 8
Created cellZoneSet zone191
    Applying source surfaceToCell
    Adding cells in relation to surface "constant/triSurface/STL_Files/191.stl" ...
    Marked inside/outside using surface intersection in = 0.83 s

    cellZoneSet zone191 now size 9
Created cellZoneSet zone192
    Applying source surfaceToCell
    Adding cells in relation to surface "constant/triSurface/STL_Files/192.stl" ...
    Marked inside/outside using surface intersection in = 0.82 s

    cellZoneSet zone192 now size 14
Created cellZoneSet zone193
    Applying source surfaceToCell
    Adding cells in relation to surface "constant/triSurface/STL_Files/193.stl" ...
    Marked inside/outside using surface intersection in = 0.83 s

    cellZoneSet zone193 now size 9
Created cellZoneSet zone194
    Applying source surfaceToCell
    Adding cells in relation to surface "constant/triSurface/STL_Files/194.stl" ...
    Marked inside/outside using surface intersection in = 0.85 s

    cellZoneSet zone194 now size 12
Created cellZoneSet zone195
    Applying source surfaceToCell
    Adding cells in relation to surface "constant/triSurface/STL_Files/195.stl" ...
    Marked inside/outside using surface intersection in = 0.85 s

    cellZoneSet zone195 now size 8
Created cellZoneSet zone196
    Applying source surfaceToCell
    Adding cells in relation to surface "constant/triSurface/STL_Files/196.stl" ...
    Marked inside/outside using surface intersection in = 0.82 s

    cellZoneSet zone196 now size 7
Created cellZoneSet zone197
    Applying source surfaceToCell
    Adding cells in relation to surface "constant/triSurface/STL_Files/197.stl" ...
    Marked inside/outside using surface intersection in = 0.85 s

    cellZoneSet zone197 now size 10
Created cellZoneSet zone198
    Applying source surfaceToCell
    Adding cells in relation to surface "constant/triSurface/STL_Files/198.stl" ...
    Marked inside/outside using surface intersection in = 0.88 s

    cellZoneSet zone198 now size 11
Created cellZoneSet zone199
    Applying source surfaceToCell
    Adding cells in relation to surface "constant/triSurface/STL_Files/199.stl" ...
    Marked inside/outside using surface intersection in = 0.79 s

    cellZoneSet zone199 now size 9
Created cellZoneSet zone200
    Applying source surfaceToCell
    Adding cells in relation to surface "constant/triSurface/STL_Files/200.stl" ...
    Marked inside/outside using surface intersection in = 0.86 s

    cellZoneSet zone200 now size 8
Created cellZoneSet zone201
    Applying source surfaceToCell
    Adding cells in relation to surface "constant/triSurface/STL_Files/201.stl" ...
    Marked inside/outside using surface intersection in = 0.82 s

    cellZoneSet zone201 now size 7
Created cellZoneSet zone202
    Applying source surfaceToCell
    Adding cells in relation to surface "constant/triSurface/STL_Files/202.stl" ...
    Marked inside/outside using surface intersection in = 0.81 s

    cellZoneSet zone202 now size 11
Created cellZoneSet zone203
    Applying source surfaceToCell
    Adding cells in relation to surface "constant/triSurface/STL_Files/203.stl" ...
    Marked inside/outside using surface intersection in = 0.82 s

    cellZoneSet zone203 now size 8
Created cellZoneSet zone204
    Applying source surfaceToCell
    Adding cells in relation to surface "constant/triSurface/STL_Files/204.stl" ...
    Marked inside/outside using surface intersection in = 0.86 s

    cellZoneSet zone204 now size 8
Created cellZoneSet zone205
    Applying source surfaceToCell
    Adding cells in relation to surface "constant/triSurface/STL_Files/205.stl" ...
    Marked inside/outside using surface intersection in = 0.8 s

    cellZoneSet zone205 now size 6
Created cellZoneSet zone206
    Applying source surfaceToCell
    Adding cells in relation to surface "constant/triSurface/STL_Files/206.stl" ...
    Marked inside/outside using surface intersection in = 0.85 s

    cellZoneSet zone206 now size 11
Created cellZoneSet zone207
    Applying source surfaceToCell
    Adding cells in relation to surface "constant/triSurface/STL_Files/207.stl" ...
    Marked inside/outside using surface intersection in = 0.84 s

    cellZoneSet zone207 now size 11
Created cellZoneSet zone208
    Applying source surfaceToCell
    Adding cells in relation to surface "constant/triSurface/STL_Files/208.stl" ...
    Marked inside/outside using surface intersection in = 0.8 s

    cellZoneSet zone208 now size 10
Created cellZoneSet zone209
    Applying source surfaceToCell
    Adding cells in relation to surface "constant/triSurface/STL_Files/209.stl" ...
    Marked inside/outside using surface intersection in = 0.82 s

    cellZoneSet zone209 now size 9
Created cellZoneSet zone210
    Applying source surfaceToCell
    Adding cells in relation to surface "constant/triSurface/STL_Files/210.stl" ...
    Marked inside/outside using surface intersection in = 0.79 s

    cellZoneSet zone210 now size 12
Created cellZoneSet zone211
    Applying source surfaceToCell
    Adding cells in relation to surface "constant/triSurface/STL_Files/211.stl" ...
    Marked inside/outside using surface intersection in = 0.83 s

    cellZoneSet zone211 now size 9
Created cellZoneSet zone212
    Applying source surfaceToCell
    Adding cells in relation to surface "constant/triSurface/STL_Files/212.stl" ...
    Marked inside/outside using surface intersection in = 0.88 s

    cellZoneSet zone212 now size 10
Created cellZoneSet zone213
    Applying source surfaceToCell
    Adding cells in relation to surface "constant/triSurface/STL_Files/213.stl" ...
    Marked inside/outside using surface intersection in = 0.79 s

    cellZoneSet zone213 now size 11
Created cellZoneSet zone214
    Applying source surfaceToCell
    Adding cells in relation to surface "constant/triSurface/STL_Files/214.stl" ...
    Marked inside/outside using surface intersection in = 0.84 s

    cellZoneSet zone214 now size 12
Created cellZoneSet zone215
    Applying source surfaceToCell
    Adding cells in relation to surface "constant/triSurface/STL_Files/215.stl" ...
    Marked inside/outside using surface intersection in = 0.8 s

    cellZoneSet zone215 now size 8
Created cellZoneSet zone216
    Applying source surfaceToCell
    Adding cells in relation to surface "constant/triSurface/STL_Files/216.stl" ...
    Marked inside/outside using surface intersection in = 0.84 s

    cellZoneSet zone216 now size 7
Created cellZoneSet zone217
    Applying source surfaceToCell
    Adding cells in relation to surface "constant/triSurface/STL_Files/217.stl" ...
    Marked inside/outside using surface intersection in = 0.79 s

    cellZoneSet zone217 now size 6
Created cellZoneSet zone218
    Applying source surfaceToCell
    Adding cells in relation to surface "constant/triSurface/STL_Files/218.stl" ...
    Marked inside/outside using surface intersection in = 0.81 s

    cellZoneSet zone218 now size 14
Created cellZoneSet zone219
    Applying source surfaceToCell
    Adding cells in relation to surface "constant/triSurface/STL_Files/219.stl" ...
    Marked inside/outside using surface intersection in = 0.86 s

    cellZoneSet zone219 now size 8
Created cellZoneSet zone220
    Applying source surfaceToCell
    Adding cells in relation to surface "constant/triSurface/STL_Files/220.stl" ...
    Marked inside/outside using surface intersection in = 0.79 s

    cellZoneSet zone220 now size 6
Created cellZoneSet zone221
    Applying source surfaceToCell
    Adding cells in relation to surface "constant/triSurface/STL_Files/221.stl" ...
    Marked inside/outside using surface intersection in = 0.81 s

    cellZoneSet zone221 now size 8
Created cellZoneSet zone222
    Applying source surfaceToCell
    Adding cells in relation to surface "constant/triSurface/STL_Files/222.stl" ...
    Marked inside/outside using surface intersection in = 0.85 s

    cellZoneSet zone222 now size 21
Created cellZoneSet zone223
    Applying source surfaceToCell
    Adding cells in relation to surface "constant/triSurface/STL_Files/223.stl" ...
    Marked inside/outside using surface intersection in = 0.82 s

    cellZoneSet zone223 now size 9
Created cellZoneSet zone224
    Applying source surfaceToCell
    Adding cells in relation to surface "constant/triSurface/STL_Files/224.stl" ...
    Marked inside/outside using surface intersection in = 0.81 s

    cellZoneSet zone224 now size 12
Created cellZoneSet zone225
    Applying source surfaceToCell
    Adding cells in relation to surface "constant/triSurface/STL_Files/225.stl" ...
    Marked inside/outside using surface intersection in = 0.86 s

    cellZoneSet zone225 now size 9
Created cellZoneSet zone226
    Applying source surfaceToCell
    Adding cells in relation to surface "constant/triSurface/STL_Files/226.stl" ...
    Marked inside/outside using surface intersection in = 0.86 s

    cellZoneSet zone226 now size 8
Created cellZoneSet zone227
    Applying source surfaceToCell
    Adding cells in relation to surface "constant/triSurface/STL_Files/227.stl" ...
    Marked inside/outside using surface intersection in = 0.79 s

    cellZoneSet zone227 now size 10
Created cellZoneSet zone228
    Applying source surfaceToCell
    Adding cells in relation to surface "constant/triSurface/STL_Files/228.stl" ...
    Marked inside/outside using surface intersection in = 0.78 s

    cellZoneSet zone228 now size 8
Created cellZoneSet zone229
    Applying source surfaceToCell
    Adding cells in relation to surface "constant/triSurface/STL_Files/229.stl" ...
    Marked inside/outside using surface intersection in = 0.84 s

    cellZoneSet zone229 now size 9
Created cellZoneSet zone230
    Applying source surfaceToCell
    Adding cells in relation to surface "constant/triSurface/STL_Files/230.stl" ...
    Marked inside/outside using surface intersection in = 0.81 s

    cellZoneSet zone230 now size 8
Created cellZoneSet zone231
    Applying source surfaceToCell
    Adding cells in relation to surface "constant/triSurface/STL_Files/231.stl" ...
    Marked inside/outside using surface intersection in = 0.8 s

    cellZoneSet zone231 now size 8
Created cellZoneSet zone232
    Applying source surfaceToCell
    Adding cells in relation to surface "constant/triSurface/STL_Files/232.stl" ...
    Marked inside/outside using surface intersection in = 0.79 s

    cellZoneSet zone232 now size 6
Created cellZoneSet zone233
    Applying source surfaceToCell
    Adding cells in relation to surface "constant/triSurface/STL_Files/233.stl" ...
    Marked inside/outside using surface intersection in = 0.8 s

    cellZoneSet zone233 now size 8
Created cellZoneSet zone234
    Applying source surfaceToCell
    Adding cells in relation to surface "constant/triSurface/STL_Files/234.stl" ...
    Marked inside/outside using surface intersection in = 0.86 s

    cellZoneSet zone234 now size 10
Created cellZoneSet zone235
    Applying source surfaceToCell
    Adding cells in relation to surface "constant/triSurface/STL_Files/235.stl" ...
    Marked inside/outside using surface intersection in = 0.83 s

    cellZoneSet zone235 now size 13
Created cellZoneSet zone236
    Applying source surfaceToCell
    Adding cells in relation to surface "constant/triSurface/STL_Files/236.stl" ...
    Marked inside/outside using surface intersection in = 0.85 s

    cellZoneSet zone236 now size 13
Created cellZoneSet zone237
    Applying source surfaceToCell
    Adding cells in relation to surface "constant/triSurface/STL_Files/237.stl" ...
    Marked inside/outside using surface intersection in = 0.83 s

    cellZoneSet zone237 now size 8
Created cellZoneSet zone238
    Applying source surfaceToCell
    Adding cells in relation to surface "constant/triSurface/STL_Files/238.stl" ...
    Marked inside/outside using surface intersection in = 0.8 s

    cellZoneSet zone238 now size 5
Created cellZoneSet zone239
    Applying source surfaceToCell
    Adding cells in relation to surface "constant/triSurface/STL_Files/239.stl" ...
    Marked inside/outside using surface intersection in = 0.88 s

    cellZoneSet zone239 now size 5
Created cellZoneSet zone240
    Applying source surfaceToCell
    Adding cells in relation to surface "constant/triSurface/STL_Files/240.stl" ...
    Marked inside/outside using surface intersection in = 0.82 s

    cellZoneSet zone240 now size 10
Created cellZoneSet zone241
    Applying source surfaceToCell
    Adding cells in relation to surface "constant/triSurface/STL_Files/241.stl" ...
    Marked inside/outside using surface intersection in = 0.86 s

    cellZoneSet zone241 now size 9
Created cellZoneSet zone242
    Applying source surfaceToCell
    Adding cells in relation to surface "constant/triSurface/STL_Files/242.stl" ...
    Marked inside/outside using surface intersection in = 0.82 s

    cellZoneSet zone242 now size 10
Created cellZoneSet zone243
    Applying source surfaceToCell
    Adding cells in relation to surface "constant/triSurface/STL_Files/243.stl" ...
    Marked inside/outside using surface intersection in = 0.82 s

    cellZoneSet zone243 now size 10
Created cellZoneSet zone244
    Applying source surfaceToCell
    Adding cells in relation to surface "constant/triSurface/STL_Files/244.stl" ...
    Marked inside/outside using surface intersection in = 0.8 s

    cellZoneSet zone244 now size 8
Created cellZoneSet zone245
    Applying source surfaceToCell
    Adding cells in relation to surface "constant/triSurface/STL_Files/245.stl" ...
    Marked inside/outside using surface intersection in = 0.83 s

    cellZoneSet zone245 now size 8
Created cellZoneSet zone246
    Applying source surfaceToCell
    Adding cells in relation to surface "constant/triSurface/STL_Files/246.stl" ...
    Marked inside/outside using surface intersection in = 0.83 s

    cellZoneSet zone246 now size 6
Created cellZoneSet zone247
    Applying source surfaceToCell
    Adding cells in relation to surface "constant/triSurface/STL_Files/247.stl" ...
    Marked inside/outside using surface intersection in = 0.8 s

    cellZoneSet zone247 now size 7
Created cellZoneSet zone248
    Applying source surfaceToCell
    Adding cells in relation to surface "constant/triSurface/STL_Files/248.stl" ...
    Marked inside/outside using surface intersection in = 0.83 s

    cellZoneSet zone248 now size 13
Created cellZoneSet zone249
    Applying source surfaceToCell
    Adding cells in relation to surface "constant/triSurface/STL_Files/249.stl" ...
    Marked inside/outside using surface intersection in = 0.82 s

    cellZoneSet zone249 now size 11
Created cellZoneSet zone250
    Applying source surfaceToCell
    Adding cells in relation to surface "constant/triSurface/STL_Files/250.stl" ...
    Marked inside/outside using surface intersection in = 0.83 s

    cellZoneSet zone250 now size 8
Created cellZoneSet zone251
    Applying source surfaceToCell
    Adding cells in relation to surface "constant/triSurface/STL_Files/251.stl" ...
    Marked inside/outside using surface intersection in = 0.9 s

    cellZoneSet zone251 now size 9
Created cellZoneSet zone252
    Applying source surfaceToCell
    Adding cells in relation to surface "constant/triSurface/STL_Files/252.stl" ...
    Marked inside/outside using surface intersection in = 0.83 s

    cellZoneSet zone252 now size 11
Created cellZoneSet zone253
    Applying source surfaceToCell
    Adding cells in relation to surface "constant/triSurface/STL_Files/253.stl" ...
    Marked inside/outside using surface intersection in = 0.85 s

    cellZoneSet zone253 now size 11
Created cellZoneSet zone254
    Applying source surfaceToCell
    Adding cells in relation to surface "constant/triSurface/STL_Files/254.stl" ...
    Marked inside/outside using surface intersection in = 0.89 s

    cellZoneSet zone254 now size 9
Created cellZoneSet zone255
    Applying source surfaceToCell
    Adding cells in relation to surface "constant/triSurface/STL_Files/255.stl" ...
    Marked inside/outside using surface intersection in = 0.8 s

    cellZoneSet zone255 now size 8
Created cellZoneSet zone256
    Applying source surfaceToCell
    Adding cells in relation to surface "constant/triSurface/STL_Files/256.stl" ...
    Marked inside/outside using surface intersection in = 0.83 s

    cellZoneSet zone256 now size 10
Created cellZoneSet zone257
    Applying source surfaceToCell
    Adding cells in relation to surface "constant/triSurface/STL_Files/257.stl" ...
    Marked inside/outside using surface intersection in = 0.82 s

    cellZoneSet zone257 now size 9
Created cellZoneSet zone258
    Applying source surfaceToCell
    Adding cells in relation to surface "constant/triSurface/STL_Files/258.stl" ...
    Marked inside/outside using surface intersection in = 0.79 s

    cellZoneSet zone258 now size 8
Created cellZoneSet zone259
    Applying source surfaceToCell
    Adding cells in relation to surface "constant/triSurface/STL_Files/259.stl" ...
    Marked inside/outside using surface intersection in = 0.81 s

    cellZoneSet zone259 now size 9
Created cellZoneSet zone260
    Applying source surfaceToCell
    Adding cells in relation to surface "constant/triSurface/STL_Files/260.stl" ...
    Marked inside/outside using surface intersection in = 0.88 s

    cellZoneSet zone260 now size 9
Created cellZoneSet zone261
    Applying source surfaceToCell
    Adding cells in relation to surface "constant/triSurface/STL_Files/261.stl" ...
    Marked inside/outside using surface intersection in = 0.83 s

    cellZoneSet zone261 now size 10
Created cellZoneSet zone262
    Applying source surfaceToCell
    Adding cells in relation to surface "constant/triSurface/STL_Files/262.stl" ...
    Marked inside/outside using surface intersection in = 0.88 s

    cellZoneSet zone262 now size 11
Created cellZoneSet zone263
    Applying source surfaceToCell
    Adding cells in relation to surface "constant/triSurface/STL_Files/263.stl" ...
    Marked inside/outside using surface intersection in = 0.84 s

    cellZoneSet zone263 now size 8
Created cellZoneSet zone264
    Applying source surfaceToCell
    Adding cells in relation to surface "constant/triSurface/STL_Files/264.stl" ...
    Marked inside/outside using surface intersection in = 0.79 s

    cellZoneSet zone264 now size 10
Created cellZoneSet zone265
    Applying source surfaceToCell
    Adding cells in relation to surface "constant/triSurface/STL_Files/265.stl" ...
    Marked inside/outside using surface intersection in = 0.81 s

    cellZoneSet zone265 now size 12
Created cellZoneSet zone266
    Applying source surfaceToCell
    Adding cells in relation to surface "constant/triSurface/STL_Files/266.stl" ...
    Marked inside/outside using surface intersection in = 0.87 s

    cellZoneSet zone266 now size 8
Created cellZoneSet zone267
    Applying source surfaceToCell
    Adding cells in relation to surface "constant/triSurface/STL_Files/267.stl" ...
    Marked inside/outside using surface intersection in = 0.85 s

    cellZoneSet zone267 now size 4
Created cellZoneSet zone268
    Applying source surfaceToCell
    Adding cells in relation to surface "constant/triSurface/STL_Files/268.stl" ...
    Marked inside/outside using surface intersection in = 0.79 s

    cellZoneSet zone268 now size 3
Created cellZoneSet zone269
    Applying source surfaceToCell
    Adding cells in relation to surface "constant/triSurface/STL_Files/269.stl" ...
    Marked inside/outside using surface intersection in = 0.82 s

    cellZoneSet zone269 now size 6
Created cellZoneSet zone270
    Applying source surfaceToCell
    Adding cells in relation to surface "constant/triSurface/STL_Files/270.stl" ...
    Marked inside/outside using surface intersection in = 0.79 s

    cellZoneSet zone270 now size 8
Created cellZoneSet zone271
    Applying source surfaceToCell
    Adding cells in relation to surface "constant/triSurface/STL_Files/271.stl" ...
    Marked inside/outside using surface intersection in = 0.85 s

    cellZoneSet zone271 now size 6
Created cellZoneSet zone272
    Applying source surfaceToCell
    Adding cells in relation to surface "constant/triSurface/STL_Files/272.stl" ...
    Marked inside/outside using surface intersection in = 0.82 s

    cellZoneSet zone272 now size 6
Created cellZoneSet zone273
    Applying source surfaceToCell
    Adding cells in relation to surface "constant/triSurface/STL_Files/273.stl" ...
    Marked inside/outside using surface intersection in = 0.79 s

    cellZoneSet zone273 now size 3
Created cellZoneSet zone274
    Applying source surfaceToCell
    Adding cells in relation to surface "constant/triSurface/STL_Files/274.stl" ...
    Marked inside/outside using surface intersection in = 0.82 s

    cellZoneSet zone274 now size 7
Created cellZoneSet zone275
    Applying source surfaceToCell
    Adding cells in relation to surface "constant/triSurface/STL_Files/275.stl" ...
    Marked inside/outside using surface intersection in = 0.83 s

    cellZoneSet zone275 now size 6
Created cellZoneSet zone276
    Applying source surfaceToCell
    Adding cells in relation to surface "constant/triSurface/STL_Files/276.stl" ...
    Marked inside/outside using surface intersection in = 0.85 s

    cellZoneSet zone276 now size 8
Created cellZoneSet zone277
    Applying source surfaceToCell
    Adding cells in relation to surface "constant/triSurface/STL_Files/277.stl" ...
    Marked inside/outside using surface intersection in = 0.83 s

    cellZoneSet zone277 now size 9
Created cellZoneSet zone278
    Applying source surfaceToCell
    Adding cells in relation to surface "constant/triSurface/STL_Files/278.stl" ...
    Marked inside/outside using surface intersection in = 0.83 s

    cellZoneSet zone278 now size 10
Created cellZoneSet zone279
    Applying source surfaceToCell
    Adding cells in relation to surface "constant/triSurface/STL_Files/279.stl" ...
    Marked inside/outside using surface intersection in = 0.83 s

    cellZoneSet zone279 now size 13
Created cellZoneSet zone280
    Applying source surfaceToCell
    Adding cells in relation to surface "constant/triSurface/STL_Files/280.stl" ...
    Marked inside/outside using surface intersection in = 0.82 s

    cellZoneSet zone280 now size 10
Created cellZoneSet zone281
    Applying source surfaceToCell
    Adding cells in relation to surface "constant/triSurface/STL_Files/281.stl" ...
    Marked inside/outside using surface intersection in = 0.82 s

    cellZoneSet zone281 now size 9
Created cellZoneSet zone282
    Applying source surfaceToCell
    Adding cells in relation to surface "constant/triSurface/STL_Files/282.stl" ...
    Marked inside/outside using surface intersection in = 0.79 s

    cellZoneSet zone282 now size 19
Created cellZoneSet zone283
    Applying source surfaceToCell
    Adding cells in relation to surface "constant/triSurface/STL_Files/283.stl" ...
    Marked inside/outside using surface intersection in = 0.83 s

    cellZoneSet zone283 now size 11
Created cellZoneSet zone284
    Applying source surfaceToCell
    Adding cells in relation to surface "constant/triSurface/STL_Files/284.stl" ...
    Marked inside/outside using surface intersection in = 0.89 s

    cellZoneSet zone284 now size 10
Created cellZoneSet zone285
    Applying source surfaceToCell
    Adding cells in relation to surface "constant/triSurface/STL_Files/285.stl" ...
    Marked inside/outside using surface intersection in = 0.99 s

    cellZoneSet zone285 now size 7
Created cellZoneSet zone286
    Applying source surfaceToCell
    Adding cells in relation to surface "constant/triSurface/STL_Files/286.stl" ...
    Marked inside/outside using surface intersection in = 0.97 s

    cellZoneSet zone286 now size 11
Created cellZoneSet zone287
    Applying source surfaceToCell
    Adding cells in relation to surface "constant/triSurface/STL_Files/287.stl" ...
    Marked inside/outside using surface intersection in = 0.92 s

    cellZoneSet zone287 now size 9
Created cellZoneSet zone288
    Applying source surfaceToCell
    Adding cells in relation to surface "constant/triSurface/STL_Files/288.stl" ...
    Marked inside/outside using surface intersection in = 0.9 s

    cellZoneSet zone288 now size 8
Created cellZoneSet zone289
    Applying source surfaceToCell
    Adding cells in relation to surface "constant/triSurface/STL_Files/289.stl" ...
    Marked inside/outside using surface intersection in = 0.9 s

    cellZoneSet zone289 now size 9
Created cellZoneSet zone290
    Applying source surfaceToCell
    Adding cells in relation to surface "constant/triSurface/STL_Files/290.stl" ...
    Marked inside/outside using surface intersection in = 0.86 s

    cellZoneSet zone290 now size 9
Created cellZoneSet zone291
    Applying source surfaceToCell
    Adding cells in relation to surface "constant/triSurface/STL_Files/291.stl" ...
    Marked inside/outside using surface intersection in = 0.79 s

    cellZoneSet zone291 now size 9
Created cellZoneSet zone292
    Applying source surfaceToCell
    Adding cells in relation to surface "constant/triSurface/STL_Files/292.stl" ...
    Marked inside/outside using surface intersection in = 0.83 s

    cellZoneSet zone292 now size 12
Created cellZoneSet zone293
    Applying source surfaceToCell
    Adding cells in relation to surface "constant/triSurface/STL_Files/293.stl" ...
    Marked inside/outside using surface intersection in = 0.81 s

    cellZoneSet zone293 now size 7
Created cellZoneSet zone294
    Applying source surfaceToCell
    Adding cells in relation to surface "constant/triSurface/STL_Files/294.stl" ...
    Marked inside/outside using surface intersection in = 0.82 s

    cellZoneSet zone294 now size 7
Created cellZoneSet zone295
    Applying source surfaceToCell
    Adding cells in relation to surface "constant/triSurface/STL_Files/295.stl" ...
    Marked inside/outside using surface intersection in = 0.81 s

    cellZoneSet zone295 now size 10
Created cellZoneSet zone296
    Applying source surfaceToCell
    Adding cells in relation to surface "constant/triSurface/STL_Files/296.stl" ...
    Marked inside/outside using surface intersection in = 0.88 s

    cellZoneSet zone296 now size 8
Created cellZoneSet zone297
    Applying source surfaceToCell
    Adding cells in relation to surface "constant/triSurface/STL_Files/297.stl" ...
    Marked inside/outside using surface intersection in = 0.86 s

    cellZoneSet zone297 now size 10
Created cellZoneSet zone298
    Applying source surfaceToCell
    Adding cells in relation to surface "constant/triSurface/STL_Files/298.stl" ...
    Marked inside/outside using surface intersection in = 0.86 s

    cellZoneSet zone298 now size 10
Created cellZoneSet zone299
    Applying source surfaceToCell
    Adding cells in relation to surface "constant/triSurface/STL_Files/299.stl" ...
    Marked inside/outside using surface intersection in = 0.81 s

    cellZoneSet zone299 now size 10
Created cellZoneSet zone300
    Applying source surfaceToCell
    Adding cells in relation to surface "constant/triSurface/STL_Files/300.stl" ...
    Marked inside/outside using surface intersection in = 0.8 s

    cellZoneSet zone300 now size 6
Created cellZoneSet zone301
    Applying source surfaceToCell
    Adding cells in relation to surface "constant/triSurface/STL_Files/301.stl" ...
    Marked inside/outside using surface intersection in = 0.85 s

    cellZoneSet zone301 now size 6
Created cellZoneSet zone302
    Applying source surfaceToCell
    Adding cells in relation to surface "constant/triSurface/STL_Files/302.stl" ...
    Marked inside/outside using surface intersection in = 0.92 s

    cellZoneSet zone302 now size 7
Created cellZoneSet zone303
    Applying source surfaceToCell
    Adding cells in relation to surface "constant/triSurface/STL_Files/303.stl" ...
    Marked inside/outside using surface intersection in = 0.84 s

    cellZoneSet zone303 now size 6
Created cellZoneSet zone304
    Applying source surfaceToCell
    Adding cells in relation to surface "constant/triSurface/STL_Files/304.stl" ...
    Marked inside/outside using surface intersection in = 0.82 s

    cellZoneSet zone304 now size 8
Created cellZoneSet zone305
    Applying source surfaceToCell
    Adding cells in relation to surface "constant/triSurface/STL_Files/305.stl" ...
    Marked inside/outside using surface intersection in = 0.82 s

    cellZoneSet zone305 now size 10
Created cellZoneSet zone306
    Applying source surfaceToCell
    Adding cells in relation to surface "constant/triSurface/STL_Files/306.stl" ...
    Marked inside/outside using surface intersection in = 0.82 s

    cellZoneSet zone306 now size 7
Created cellZoneSet zone307
    Applying source surfaceToCell
    Adding cells in relation to surface "constant/triSurface/STL_Files/307.stl" ...
    Marked inside/outside using surface intersection in = 0.81 s

    cellZoneSet zone307 now size 6
Created cellZoneSet zone308
    Applying source surfaceToCell
    Adding cells in relation to surface "constant/triSurface/STL_Files/308.stl" ...
    Marked inside/outside using surface intersection in = 0.8 s

    cellZoneSet zone308 now size 9
Created cellZoneSet zone309
    Applying source surfaceToCell
    Adding cells in relation to surface "constant/triSurface/STL_Files/309.stl" ...
    Marked inside/outside using surface intersection in = 0.84 s

    cellZoneSet zone309 now size 7
Created cellZoneSet zone310
    Applying source surfaceToCell
    Adding cells in relation to surface "constant/triSurface/STL_Files/310.stl" ...
    Marked inside/outside using surface intersection in = 0.8 s

    cellZoneSet zone310 now size 13
Created cellZoneSet zone311
    Applying source surfaceToCell
    Adding cells in relation to surface "constant/triSurface/STL_Files/311.stl" ...
    Marked inside/outside using surface intersection in = 0.87 s

    cellZoneSet zone311 now size 11
Created cellZoneSet zone312
    Applying source surfaceToCell
    Adding cells in relation to surface "constant/triSurface/STL_Files/312.stl" ...
    Marked inside/outside using surface intersection in = 0.82 s

    cellZoneSet zone312 now size 11
Created cellZoneSet zone313
    Applying source surfaceToCell
    Adding cells in relation to surface "constant/triSurface/STL_Files/313.stl" ...
    Marked inside/outside using surface intersection in = 0.83 s

    cellZoneSet zone313 now size 7
Created cellZoneSet zone314
    Applying source surfaceToCell
    Adding cells in relation to surface "constant/triSurface/STL_Files/314.stl" ...
    Marked inside/outside using surface intersection in = 0.84 s

    cellZoneSet zone314 now size 9
Created cellZoneSet zone315
    Applying source surfaceToCell
    Adding cells in relation to surface "constant/triSurface/STL_Files/315.stl" ...
    Marked inside/outside using surface intersection in = 0.82 s

    cellZoneSet zone315 now size 7
Created cellZoneSet zone316
    Applying source surfaceToCell
    Adding cells in relation to surface "constant/triSurface/STL_Files/316.stl" ...
    Marked inside/outside using surface intersection in = 0.86 s

    cellZoneSet zone316 now size 10
Created cellZoneSet zone317
    Applying source surfaceToCell
    Adding cells in relation to surface "constant/triSurface/STL_Files/317.stl" ...
    Marked inside/outside using surface intersection in = 0.83 s

    cellZoneSet zone317 now size 6
[...]
    Applying source surfaceToCell
    Adding cells in relation to surface "constant/triSurface/STL_Files/3520.stl" ...
    Marked inside/outside using surface intersection in = 0.88 s

    cellZoneSet zone3520 now size 3
Created cellZoneSet zone3521
    Applying source surfaceToCell
    Adding cells in relation to surface "constant/triSurface/STL_Files/3521.stl" ...
    Marked inside/outside using surface intersection in = 0.78 s

    cellZoneSet zone3521 now size 4
Created cellZoneSet zone3522
    Applying source surfaceToCell
    Adding cells in relation to surface "constant/triSurface/STL_Files/3522.stl" ...
    Marked inside/outside using surface intersection in = 0.79 s

    cellZoneSet zone3522 now size 4
Created cellZoneSet zone3523
    Applying source surfaceToCell
    Adding cells in relation to surface "constant/triSurface/STL_Files/3523.stl" ...
    Marked inside/outside using surface intersection in = 0.79 s

    cellZoneSet zone3523 now size 6
Created cellZoneSet zone3524
    Applying source surfaceToCell
    Adding cells in relation to surface "constant/triSurface/STL_Files/3524.stl" ...
    Marked inside/outside using surface intersection in = 0.75 s

    cellZoneSet zone3524 now size 7
Created cellZoneSet zone3525
    Applying source surfaceToCell
    Adding cells in relation to surface "constant/triSurface/STL_Files/3525.stl" ...
    Marked inside/outside using surface intersection in = 0.82 s

    cellZoneSet zone3525 now size 6
Created cellZoneSet zone3526
    Applying source surfaceToCell
    Adding cells in relation to surface "constant/triSurface/STL_Files/3526.stl" ...
    Marked inside/outside using surface intersection in = 0.8 s

    cellZoneSet zone3526 now size 9
Created cellZoneSet zone3527
    Applying source surfaceToCell
    Adding cells in relation to surface "constant/triSurface/STL_Files/3527.stl" ...
    Marked inside/outside using surface intersection in = 0.75 s

    cellZoneSet zone3527 now size 4
Created cellZoneSet zone3528
    Applying source surfaceToCell
    Adding cells in relation to surface "constant/triSurface/STL_Files/3528.stl" ...
    Marked inside/outside using surface intersection in = 0.78 s

    cellZoneSet zone3528 now size 2
Created cellZoneSet zone3529
    Applying source surfaceToCell
    Adding cells in relation to surface "constant/triSurface/STL_Files/3529.stl" ...
    Marked inside/outside using surface intersection in = 0.76 s

    cellZoneSet zone3529 now size 3
Created cellZoneSet zone3530
    Applying source surfaceToCell
    Adding cells in relation to surface "constant/triSurface/STL_Files/3530.stl" ...
    Marked inside/outside using surface intersection in = 0.82 s

    cellZoneSet zone3530 now size 4
Created cellZoneSet zone3531
    Applying source surfaceToCell
    Adding cells in relation to surface "constant/triSurface/STL_Files/3531.stl" ...
    Marked inside/outside using surface intersection in = 0.75 s

    cellZoneSet zone3531 now size 2
Created cellZoneSet zone3532
    Applying source surfaceToCell
    Adding cells in relation to surface "constant/triSurface/STL_Files/3532.stl" ...
    Marked inside/outside using surface intersection in = 0.79 s

    cellZoneSet zone3532 now size 2
Created cellZoneSet zone3533
    Applying source surfaceToCell
    Adding cells in relation to surface "constant/triSurface/STL_Files/3533.stl" ...
    Marked inside/outside using surface intersection in = 0.78 s

    cellZoneSet zone3533 now size 4
Created cellZoneSet zone3534
    Applying source surfaceToCell
    Adding cells in relation to surface "constant/triSurface/STL_Files/3534.stl" ...
    Marked inside/outside using surface intersection in = 0.84 s

    cellZoneSet zone3534 now size 2
Created cellZoneSet zone3535
    Applying source surfaceToCell
    Adding cells in relation to surface "constant/triSurface/STL_Files/3535.stl" ...
    Marked inside/outside using surface intersection in = 0.78 s

    cellZoneSet zone3535 now size 2
Created cellZoneSet zone3536
    Applying source surfaceToCell
    Adding cells in relation to surface "constant/triSurface/STL_Files/3536.stl" ...
    Marked inside/outside using surface intersection in = 0.82 s

    cellZoneSet zone3536 now size 4
Created cellZoneSet zone3537
    Applying source surfaceToCell
    Adding cells in relation to surface "constant/triSurface/STL_Files/3537.stl" ...
    Marked inside/outside using surface intersection in = 0.83 s

    cellZoneSet zone3537 now size 2
Created cellZoneSet zone3538
    Applying source surfaceToCell
    Adding cells in relation to surface "constant/triSurface/STL_Files/3538.stl" ...
    Marked inside/outside using surface intersection in = 0.77 s

    cellZoneSet zone3538 now size 2
Created cellZoneSet zone3539
    Applying source surfaceToCell
    Adding cells in relation to surface "constant/triSurface/STL_Files/3539.stl" ...
    Marked inside/outside using surface intersection in = 0.83 s

    cellZoneSet zone3539 now size 2
Created cellZoneSet zone3540
    Applying source surfaceToCell
    Adding cells in relation to surface "constant/triSurface/STL_Files/3540.stl" ...
    Marked inside/outside using surface intersection in = 0.81 s

    cellZoneSet zone3540 now size 2
Created cellZoneSet zone3541
    Applying source surfaceToCell
    Adding cells in relation to surface "constant/triSurface/STL_Files/3541.stl" ...
    Marked inside/outside using surface intersection in = 0.88 s

    cellZoneSet zone3541 now size 2
Created cellZoneSet zone3542
    Applying source surfaceToCell
    Adding cells in relation to surface "constant/triSurface/STL_Files/3542.stl" ...
    Marked inside/outside using surface intersection in = 0.83 s

    cellZoneSet zone3542 now size 4
Created cellZoneSet zone3543
    Applying source surfaceToCell
    Adding cells in relation to surface "constant/triSurface/STL_Files/3543.stl" ...
    Marked inside/outside using surface intersection in = 0.82 s

    cellZoneSet zone3543 now size 2
Created cellZoneSet zone3544
    Applying source surfaceToCell
    Adding cells in relation to surface "constant/triSurface/STL_Files/3544.stl" ...
    Marked inside/outside using surface intersection in = 0.82 s

    cellZoneSet zone3544 now size 2
Created cellZoneSet zone3545
    Applying source surfaceToCell
    Adding cells in relation to surface "constant/triSurface/STL_Files/3545.stl" ...
    Marked inside/outside using surface intersection in = 0.78 s

    cellZoneSet zone3545 now size 4
Created cellZoneSet zone3546
    Applying source surfaceToCell
    Adding cells in relation to surface "constant/triSurface/STL_Files/3546.stl" ...
    Marked inside/outside using surface intersection in = 0.84 s

    cellZoneSet zone3546 now size 3
Created cellZoneSet zone3547
    Applying source surfaceToCell
    Adding cells in relation to surface "constant/triSurface/STL_Files/3547.stl" ...
    Marked inside/outside using surface intersection in = 0.86 s

    cellZoneSet zone3547 now size 2
Created cellZoneSet zone3548
    Applying source surfaceToCell
    Adding cells in relation to surface "constant/triSurface/STL_Files/3548.stl" ...
    Marked inside/outside using surface intersection in = 0.8 s

    cellZoneSet zone3548 now size 2
Created cellZoneSet zone3549
    Applying source surfaceToCell
    Adding cells in relation to surface "constant/triSurface/STL_Files/3549.stl" ...
    Marked inside/outside using surface intersection in = 0.77 s

    cellZoneSet zone3549 now size 4
Created cellZoneSet zone3550
    Applying source surfaceToCell
    Adding cells in relation to surface "constant/triSurface/STL_Files/3550.stl" ...
    Marked inside/outside using surface intersection in = 0.76 s

    cellZoneSet zone3550 now size 2
Created cellZoneSet zone3551
    Applying source surfaceToCell
    Adding cells in relation to surface "constant/triSurface/STL_Files/3551.stl" ...
    Marked inside/outside using surface intersection in = 0.79 s

    cellZoneSet zone3551 now size 2
Created cellZoneSet zone3552
    Applying source surfaceToCell
    Adding cells in relation to surface "constant/triSurface/STL_Files/3552.stl" ...
    Marked inside/outside using surface intersection in = 0.78 s

    cellZoneSet zone3552 now size 4
Created cellZoneSet zone3553
    Applying source surfaceToCell
    Adding cells in relation to surface "constant/triSurface/STL_Files/3553.stl" ...
    Marked inside/outside using surface intersection in = 0.79 s

    cellZoneSet zone3553 now size 11
Created cellZoneSet zone3554
    Applying source surfaceToCell
    Adding cells in relation to surface "constant/triSurface/STL_Files/3554.stl" ...
    Marked inside/outside using surface intersection in = 0.81 s

    cellZoneSet zone3554 now size 7
Created cellZoneSet zone3555
    Applying source surfaceToCell
    Adding cells in relation to surface "constant/triSurface/STL_Files/3555.stl" ...
    Marked inside/outside using surface intersection in = 0.76 s

    cellZoneSet zone3555 now size 9
Created cellZoneSet zone3556
    Applying source surfaceToCell
    Adding cells in relation to surface "constant/triSurface/STL_Files/3556.stl" ...
    Marked inside/outside using surface intersection in = 0.83 s

    cellZoneSet zone3556 now size 7
Created cellZoneSet zone3557
    Applying source surfaceToCell
    Adding cells in relation to surface "constant/triSurface/STL_Files/3557.stl" ...
    Marked inside/outside using surface intersection in = 0.84 s

    cellZoneSet zone3557 now size 4
Created cellZoneSet zone3558
    Applying source surfaceToCell
    Adding cells in relation to surface "constant/triSurface/STL_Files/3558.stl" ...
    Marked inside/outside using surface intersection in = 0.79 s

    cellZoneSet zone3558 now size 2
Created cellZoneSet zone3559
    Applying source surfaceToCell
    Adding cells in relation to surface "constant/triSurface/STL_Files/3559.stl" ...
    Marked inside/outside using surface intersection in = 0.77 s

    cellZoneSet zone3559 now size 2
Created cellZoneSet zone3560
    Applying source surfaceToCell
    Adding cells in relation to surface "constant/triSurface/STL_Files/3560.stl" ...
    Marked inside/outside using surface intersection in = 0.8 s

    cellZoneSet zone3560 now size 3
Created cellZoneSet zone3561
    Applying source surfaceToCell
    Adding cells in relation to surface "constant/triSurface/STL_Files/3561.stl" ...
    Marked inside/outside using surface intersection in = 0.8 s

    cellZoneSet zone3561 now size 4
Created cellZoneSet zone3562
    Applying source surfaceToCell
    Adding cells in relation to surface "constant/triSurface/STL_Files/3562.stl" ...
    Marked inside/outside using surface intersection in = 0.78 s

    cellZoneSet zone3562 now size 2
Created cellZoneSet zone3563
    Applying source surfaceToCell
    Adding cells in relation to surface "constant/triSurface/STL_Files/3563.stl" ...
    Marked inside/outside using surface intersection in = 0.77 s

    cellZoneSet zone3563 now size 2
Created cellZoneSet zone3564
    Applying source surfaceToCell
    Adding cells in relation to surface "constant/triSurface/STL_Files/3564.stl" ...
    Marked inside/outside using surface intersection in = 0.79 s

    cellZoneSet zone3564 now size 4
Created cellZoneSet zone3565
    Applying source surfaceToCell
    Adding cells in relation to surface "constant/triSurface/STL_Files/3565.stl" ...
    Marked inside/outside using surface intersection in = 0.88 s

    cellZoneSet zone3565 now size 2
Created cellZoneSet zone3566
    Applying source surfaceToCell
    Adding cells in relation to surface "constant/triSurface/STL_Files/3566.stl" ...
    Marked inside/outside using surface intersection in = 0.74 s

    cellZoneSet zone3566 now size 2
Created cellZoneSet zone3567
    Applying source surfaceToCell
    Adding cells in relation to surface "constant/triSurface/STL_Files/3567.stl" ...
    Marked inside/outside using surface intersection in = 0.79 s

    cellZoneSet zone3567 now size 3
Created cellZoneSet zone3568
    Applying source surfaceToCell
    Adding cells in relation to surface "constant/triSurface/STL_Files/3568.stl" ...
    Marked inside/outside using surface intersection in = 0.79 s

    cellZoneSet zone3568 now size 4
Created cellZoneSet zone3569
    Applying source surfaceToCell
    Adding cells in relation to surface "constant/triSurface/STL_Files/3569.stl" ...
    Marked inside/outside using surface intersection in = 0.79 s

    cellZoneSet zone3569 now size 2
Created cellZoneSet zone3570
    Applying source surfaceToCell
    Adding cells in relation to surface "constant/triSurface/STL_Files/3570.stl" ...
    Marked inside/outside using surface intersection in = 0.81 s

    cellZoneSet zone3570 now size 2
Created cellZoneSet zone3571
    Applying source surfaceToCell
    Adding cells in relation to surface "constant/triSurface/STL_Files/3571.stl" ...
    Marked inside/outside using surface intersection in = 0.77 s

    cellZoneSet zone3571 now size 4
Created cellZoneSet zone3572
    Applying source surfaceToCell
    Adding cells in relation to surface "constant/triSurface/STL_Files/3572.stl" ...
    Marked inside/outside using surface intersection in = 0.8 s

    cellZoneSet zone3572 now size 2
Created cellZoneSet zone3573
    Applying source surfaceToCell
    Adding cells in relation to surface "constant/triSurface/STL_Files/3573.stl" ...
    Marked inside/outside using surface intersection in = 0.75 s

    cellZoneSet zone3573 now size 2
Created cellZoneSet zone3574
    Applying source surfaceToCell
    Adding cells in relation to surface "constant/triSurface/STL_Files/3574.stl" ...
    Marked inside/outside using surface intersection in = 0.83 s

    cellZoneSet zone3574 now size 4
Created cellZoneSet zone3575
    Applying source surfaceToCell
    Adding cells in relation to surface "constant/triSurface/STL_Files/3575.stl" ...
    Marked inside/outside using surface intersection in = 0.8 s

    cellZoneSet zone3575 now size 3
Created cellZoneSet zone3576
    Applying source surfaceToCell
    Adding cells in relation to surface "constant/triSurface/STL_Files/3576.stl" ...
    Marked inside/outside using surface intersection in = 0.84 s

    cellZoneSet zone3576 now size 2
Created cellZoneSet zone3577
    Applying source surfaceToCell
    Adding cells in relation to surface "constant/triSurface/STL_Files/3577.stl" ...
    Marked inside/outside using surface intersection in = 0.78 s

    cellZoneSet zone3577 now size 2
Created cellZoneSet zone3578
    Applying source surfaceToCell
    Adding cells in relation to surface "constant/triSurface/STL_Files/3578.stl" ...
    Marked inside/outside using surface intersection in = 0.75 s

    cellZoneSet zone3578 now size 4
Created cellZoneSet zone3579
    Applying source surfaceToCell
    Adding cells in relation to surface "constant/triSurface/STL_Files/3579.stl" ...
    Marked inside/outside using surface intersection in = 0.78 s

    cellZoneSet zone3579 now size 2
Created cellZoneSet zone3580
    Applying source surfaceToCell
    Adding cells in relation to surface "constant/triSurface/STL_Files/3580.stl" ...
    Marked inside/outside using surface intersection in = 0.81 s

    cellZoneSet zone3580 now size 2
Created cellZoneSet zone3581
    Applying source surfaceToCell
    Adding cells in relation to surface "constant/triSurface/STL_Files/3581.stl" ...
    Marked inside/outside using surface intersection in = 0.74 s

    cellZoneSet zone3581 now size 4
Created cellZoneSet zone3582
    Applying source surfaceToCell
    Adding cells in relation to surface "constant/triSurface/STL_Files/3582.stl" ...
    Marked inside/outside using surface intersection in = 0.76 s

    cellZoneSet zone3582 now size 3
Created cellZoneSet zone3583
    Applying source surfaceToCell
    Adding cells in relation to surface "constant/triSurface/STL_Files/3583.stl" ...
    Marked inside/outside using surface intersection in = 0.79 s

    cellZoneSet zone3583 now size 8
Created cellZoneSet zone3584
    Applying source surfaceToCell
    Adding cells in relation to surface "constant/triSurface/STL_Files/3584.stl" ...
    Marked inside/outside using surface intersection in = 0.81 s

    cellZoneSet zone3584 now size 9
Created cellZoneSet zone3585
    Applying source surfaceToCell
    Adding cells in relation to surface "constant/triSurface/STL_Files/3585.stl" ...
    Marked inside/outside using surface intersection in = 0.8 s

    cellZoneSet zone3585 now size 9
Created cellZoneSet zone3586
    Applying source surfaceToCell
    Adding cells in relation to surface "constant/triSurface/STL_Files/3586.stl" ...
    Marked inside/outside using surface intersection in = 0.83 s

    cellZoneSet zone3586 now size 8
Created cellZoneSet zone3587
    Applying source surfaceToCell
    Adding cells in relation to surface "constant/triSurface/STL_Files/3587.stl" ...
    Marked inside/outside using surface intersection in = 0.83 s

    cellZoneSet zone3587 now size 3
Created cellZoneSet zone3588
    Applying source surfaceToCell
    Adding cells in relation to surface "constant/triSurface/STL_Files/3588.stl" ...
    Marked inside/outside using surface intersection in = 0.75 s

    cellZoneSet zone3588 now size 3
Created cellZoneSet zone3589
    Applying source surfaceToCell
    Adding cells in relation to surface "constant/triSurface/STL_Files/3589.stl" ...
    Marked inside/outside using surface intersection in = 0.87 s

    cellZoneSet zone3589 now size 7
Created cellZoneSet zone3590
    Applying source surfaceToCell
    Adding cells in relation to surface "constant/triSurface/STL_Files/3590.stl" ...
    Marked inside/outside using surface intersection in = 0.8 s

    cellZoneSet zone3590 now size 3
Created cellZoneSet zone3591
    Applying source surfaceToCell
    Adding cells in relation to surface "constant/triSurface/STL_Files/3591.stl" ...
    Marked inside/outside using surface intersection in = 0.75 s

    cellZoneSet zone3591 now size 3
Created cellZoneSet zone3592
    Applying source surfaceToCell
    Adding cells in relation to surface "constant/triSurface/STL_Files/3592.stl" ...
    Marked inside/outside using surface intersection in = 0.75 s

    cellZoneSet zone3592 now size 4
Created cellZoneSet zone3593
    Applying source surfaceToCell
    Adding cells in relation to surface "constant/triSurface/STL_Files/3593.stl" ...
    Marked inside/outside using surface intersection in = 0.79 s

    cellZoneSet zone3593 now size 4
Created cellZoneSet zone3594
    Applying source surfaceToCell
    Adding cells in relation to surface "constant/triSurface/STL_Files/3594.stl" ...
    Marked inside/outside using surface intersection in = 0.8 s

    cellZoneSet zone3594 now size 2
Created cellZoneSet zone3595
    Applying source surfaceToCell
    Adding cells in relation to surface "constant/triSurface/STL_Files/3595.stl" ...
    Marked inside/outside using surface intersection in = 0.77 s

    cellZoneSet zone3595 now size 2
Created cellZoneSet zone3596
    Applying source surfaceToCell
    Adding cells in relation to surface "constant/triSurface/STL_Files/3596.stl" ...
    Marked inside/outside using surface intersection in = 0.75 s

    cellZoneSet zone3596 now size 4
Created cellZoneSet zone3597
    Applying source surfaceToCell
    Adding cells in relation to surface "constant/triSurface/STL_Files/3597.stl" ...
    Marked inside/outside using surface intersection in = 0.79 s

    cellZoneSet zone3597 now size 2
Created cellZoneSet zone3598
    Applying source surfaceToCell
    Adding cells in relation to surface "constant/triSurface/STL_Files/3598.stl" ...
    Marked inside/outside using surface intersection in = 0.75 s

    cellZoneSet zone3598 now size 2
Created cellZoneSet zone3599
    Applying source surfaceToCell
    Adding cells in relation to surface "constant/triSurface/STL_Files/3599.stl" ...
    Marked inside/outside using surface intersection in = 0.76 s

    cellZoneSet zone3599 now size 3

End

Finalising parallel run
