/*---------------------------------------------------------------------------*\
| =========                 |                                                 |
| \\      /  F ield         | OpenFOAM: The Open Source CFD Toolbox           |
|  \\    /   O peration     | Version:  2106                                  |
|   \\  /    A nd           | Website:  www.openfoam.com                      |
|    \\/     M anipulation  |                                                 |
\*---------------------------------------------------------------------------*/
Build  : _f815a12b-20210902 OPENFOAM=2106
Arch   : "LSB;label=32;scalar=64"
Exec   : simpleFoam
Date   : Jan 25 2022
Time   : 17:19:01
Host   : ServaasComputer
PID    : 18716
I/O    : uncollated
Case   : /home/servaas/OpenFOAM/servaas-v2106/VolumeAreaVerification
nProcs : 1
trapFpe: Floating point exception trapping enabled (FOAM_SIGFPE).
fileModificationChecking : Monitoring run-time modified files using timeStampMaster (fileModificationSkew 5, maxFileModificationPolls 20)
allowSystemOperations : Allowing user-supplied system call operations

// * * * * * * * * * * * * * * * * * * * * * * * * * * * * * * * * * * * * * //
Create time

Overriding OptimisationSwitches according to controlDict
    fileHandler (unregistered)
    fileModificationSkew 0;

    maxMasterFileBufferSize 1e+09;

    maxThreadFileBufferSize 1e+09;

    mpiBufferSize (unregistered)
Create mesh for time = 0


SIMPLE: convergence criteria
    field p	 tolerance 0.0001
    field U	 tolerance 0.0001

Reading field p

Reading field U

Reading/calculating face flux field phi

Selecting incompressible transport model Newtonian
Selecting turbulence model type laminar
Selecting laminar stress model Stokes
Creating MRF zone list from MRFProperties
Creating finite volume options from "system/fvOptions"

Selecting finite volume options type explicitPorositySource
    Source: porosityInzone0
    - selecting cells using cellZone zone0
    - selected 1224 cell(s) with volume 0.01970451
Porosity region porosityInzone0:
    selecting model: DarcyForchheimer
    creating porous zone: zone0
    origin: (0 0 0) e1: (-1 0 0) e2: (0 1 0)
    local bounds: (0.02525 0.8585 0.909)

Selecting finite volume options type explicitPorositySource
    Source: porosityInzone1
    - selecting cells using cellZone zone1
    - selected 1700 cell(s) with volume 0.02736737
Porosity region porosityInzone1:
    selecting model: DarcyForchheimer
    creating porous zone: zone1
    origin: (0 0 0) e1: (-1 0 -1) e2: (0 1 0)
    local bounds: (0.05356334 0.8585 0.9105768)

Selecting finite volume options type explicitPorositySource
    Source: porosityInzone2
    - selecting cells using cellZone zone2
    - selected 2183 cell(s) with volume 0.03514292
Porosity region porosityInzone2:
    selecting model: DarcyForchheimer
    creating porous zone: zone2
    origin: (0 0 0) e1: (0 0 -1) e2: (0 1 0)
    local bounds: (0.0505 0.8585 0.88375)


Starting time loop

Time = 1

DILUPBiCGStab:  Solving for Ux, Initial residual = 1, Final residual = 0.001626882, No Iterations 1
DILUPBiCGStab:  Solving for Uy, Initial residual = 0.9999981, Final residual = 0.0009093112, No Iterations 1
DILUPBiCGStab:  Solving for Uz, Initial residual = 0.9999942, Final residual = 0.002363384, No Iterations 1
GAMG:  Solving for p, Initial residual = 1, Final residual = 0.004181558, No Iterations 5
GAMG:  Solving for p, Initial residual = 0.0002623759, Final residual = 1.137689e-06, No Iterations 5
time step continuity errors : sum local = 2.937808e-06, global = -1.026971e-06, cumulative = -1.026971e-06
ExecutionTime = 2.96 s  ClockTime = 3 s

Time = 2

DILUPBiCGStab:  Solving for Ux, Initial residual = 0.1857274, Final residual = 0.0176713, No Iterations 1
DILUPBiCGStab:  Solving for Uy, Initial residual = 0.1571724, Final residual = 0.004164155, No Iterations 1
DILUPBiCGStab:  Solving for Uz, Initial residual = 0.1571578, Final residual = 0.004163475, No Iterations 1
GAMG:  Solving for p, Initial residual = 0.7586798, Final residual = 0.004040474, No Iterations 7
GAMG:  Solving for p, Initial residual = 0.0002223008, Final residual = 1.013124e-06, No Iterations 7
time step continuity errors : sum local = 2.380732e-06, global = -1.570482e-06, cumulative = -2.597453e-06
ExecutionTime = 5.7 s  ClockTime = 6 s

Time = 3

DILUPBiCGStab:  Solving for Ux, Initial residual = 0.1563762, Final residual = 0.004540848, No Iterations 1
DILUPBiCGStab:  Solving for Uy, Initial residual = 0.1099498, Final residual = 0.003142221, No Iterations 1
DILUPBiCGStab:  Solving for Uz, Initial residual = 0.1099291, Final residual = 0.00314032, No Iterations 1
GAMG:  Solving for p, Initial residual = 0.03081288, Final residual = 0.0002011674, No Iterations 5
GAMG:  Solving for p, Initial residual = 0.0003375158, Final residual = 2.77587e-06, No Iterations 6
time step continuity errors : sum local = 3.444717e-06, global = -1.458879e-06, cumulative = -4.056332e-06
ExecutionTime = 8.38 s  ClockTime = 8 s

Time = 4

DILUPBiCGStab:  Solving for Ux, Initial residual = 0.1044286, Final residual = 0.002930377, No Iterations 1
DILUPBiCGStab:  Solving for Uy, Initial residual = 0.08112321, Final residual = 0.0023621, No Iterations 1
DILUPBiCGStab:  Solving for Uz, Initial residual = 0.08110121, Final residual = 0.002360417, No Iterations 1
GAMG:  Solving for p, Initial residual = 0.03223456, Final residual = 0.0002169869, No Iterations 5
GAMG:  Solving for p, Initial residual = 0.0007280759, Final residual = 6.395658e-06, No Iterations 6
time step continuity errors : sum local = 3.008888e-06, global = -1.087824e-06, cumulative = -5.144156e-06
ExecutionTime = 11.75 s  ClockTime = 12 s

Time = 5

DILUPBiCGStab:  Solving for Ux, Initial residual = 0.06917143, Final residual = 0.001841504, No Iterations 1
DILUPBiCGStab:  Solving for Uy, Initial residual = 0.0842162, Final residual = 0.002440328, No Iterations 1
DILUPBiCGStab:  Solving for Uz, Initial residual = 0.08422284, Final residual = 0.002439921, No Iterations 1
GAMG:  Solving for p, Initial residual = 0.05060042, Final residual = 0.000497785, No Iterations 3
GAMG:  Solving for p, Initial residual = 0.0009961737, Final residual = 9.829324e-06, No Iterations 6
time step continuity errors : sum local = 3.679788e-06, global = 3.396325e-06, cumulative = -1.747831e-06
ExecutionTime = 14.17 s  ClockTime = 14 s

Time = 6

DILUPBiCGStab:  Solving for Ux, Initial residual = 0.0529372, Final residual = 0.001369425, No Iterations 1
DILUPBiCGStab:  Solving for Uy, Initial residual = 0.08777691, Final residual = 0.002444455, No Iterations 1
DILUPBiCGStab:  Solving for Uz, Initial residual = 0.08782431, Final residual = 0.002446341, No Iterations 1
GAMG:  Solving for p, Initial residual = 0.08456113, Final residual = 0.0005591431, No Iterations 3
GAMG:  Solving for p, Initial residual = 0.000515958, Final residual = 3.234851e-06, No Iterations 5
time step continuity errors : sum local = 1.601291e-06, global = -2.052736e-07, cumulative = -1.953105e-06
ExecutionTime = 16.62 s  ClockTime = 17 s

Time = 7

DILUPBiCGStab:  Solving for Ux, Initial residual = 0.04716971, Final residual = 0.001256425, No Iterations 1
DILUPBiCGStab:  Solving for Uy, Initial residual = 0.07890426, Final residual = 0.002132238, No Iterations 1
DILUPBiCGStab:  Solving for Uz, Initial residual = 0.07899299, Final residual = 0.002135312, No Iterations 1
GAMG:  Solving for p, Initial residual = 0.08225538, Final residual = 0.000496792, No Iterations 3
GAMG:  Solving for p, Initial residual = 0.0004076177, Final residual = 3.355368e-06, No Iterations 6
time step continuity errors : sum local = 2.021805e-06, global = 7.999416e-07, cumulative = -1.153163e-06
ExecutionTime = 19.19 s  ClockTime = 19 s

Time = 8

DILUPBiCGStab:  Solving for Ux, Initial residual = 0.04465976, Final residual = 0.001186852, No Iterations 1
DILUPBiCGStab:  Solving for Uy, Initial residual = 0.06947887, Final residual = 0.001814144, No Iterations 1
DILUPBiCGStab:  Solving for Uz, Initial residual = 0.0696092, Final residual = 0.001817342, No Iterations 1
GAMG:  Solving for p, Initial residual = 0.07296735, Final residual = 0.0003688477, No Iterations 3
GAMG:  Solving for p, Initial residual = 0.0003426473, Final residual = 2.368602e-06, No Iterations 5
time step continuity errors : sum local = 1.483266e-06, global = -7.745824e-07, cumulative = -1.927746e-06
ExecutionTime = 21.87 s  ClockTime = 22 s

Time = 9

DILUPBiCGStab:  Solving for Ux, Initial residual = 0.04202581, Final residual = 0.001081587, No Iterations 1
DILUPBiCGStab:  Solving for Uy, Initial residual = 0.06352699, Final residual = 0.001608799, No Iterations 1
DILUPBiCGStab:  Solving for Uz, Initial residual = 0.06366796, Final residual = 0.001612561, No Iterations 1
GAMG:  Solving for p, Initial residual = 0.06737217, Final residual = 0.0003507998, No Iterations 3
GAMG:  Solving for p, Initial residual = 0.0003531354, Final residual = 3.010516e-06, No Iterations 5
time step continuity errors : sum local = 1.846628e-06, global = -8.833481e-07, cumulative = -2.811094e-06
ExecutionTime = 23.89 s  ClockTime = 24 s

Time = 10

DILUPBiCGStab:  Solving for Ux, Initial residual = 0.03884753, Final residual = 0.000963931, No Iterations 1
DILUPBiCGStab:  Solving for Uy, Initial residual = 0.06017018, Final residual = 0.001481074, No Iterations 1
DILUPBiCGStab:  Solving for Uz, Initial residual = 0.06033589, Final residual = 0.001485446, No Iterations 1
GAMG:  Solving for p, Initial residual = 0.06850219, Final residual = 0.0003506993, No Iterations 3
GAMG:  Solving for p, Initial residual = 0.0003589558, Final residual = 1.631201e-06, No Iterations 6
time step continuity errors : sum local = 9.748766e-07, global = 8.088485e-07, cumulative = -2.002245e-06
ExecutionTime = 26.07 s  ClockTime = 26 s

Time = 11

DILUPBiCGStab:  Solving for Ux, Initial residual = 0.03618411, Final residual = 0.0008692143, No Iterations 1
DILUPBiCGStab:  Solving for Uy, Initial residual = 0.05819857, Final residual = 0.001382717, No Iterations 1
DILUPBiCGStab:  Solving for Uz, Initial residual = 0.05837781, Final residual = 0.00138868, No Iterations 1
GAMG:  Solving for p, Initial residual = 0.07117769, Final residual = 0.0003430685, No Iterations 3
GAMG:  Solving for p, Initial residual = 0.0003468659, Final residual = 2.875845e-06, No Iterations 5
time step continuity errors : sum local = 1.69416e-06, global = -8.051289e-07, cumulative = -2.807374e-06
ExecutionTime = 28.13 s  ClockTime = 28 s

Time = 12

DILUPBiCGStab:  Solving for Ux, Initial residual = 0.03354685, Final residual = 0.0007898819, No Iterations 1
DILUPBiCGStab:  Solving for Uy, Initial residual = 0.05634664, Final residual = 0.001283892, No Iterations 1
DILUPBiCGStab:  Solving for Uz, Initial residual = 0.05653227, Final residual = 0.001290266, No Iterations 1
GAMG:  Solving for p, Initial residual = 0.07269154, Final residual = 0.0003444799, No Iterations 3
GAMG:  Solving for p, Initial residual = 0.0003429049, Final residual = 1.990155e-06, No Iterations 5
time step continuity errors : sum local = 1.173977e-06, global = -5.234424e-07, cumulative = -3.330817e-06
ExecutionTime = 30.13 s  ClockTime = 30 s

Time = 13

DILUPBiCGStab:  Solving for Ux, Initial residual = 0.03171619, Final residual = 0.0007310597, No Iterations 1
DILUPBiCGStab:  Solving for Uy, Initial residual = 0.05437731, Final residual = 0.00118948, No Iterations 1
DILUPBiCGStab:  Solving for Uz, Initial residual = 0.05456817, Final residual = 0.00119527, No Iterations 1
GAMG:  Solving for p, Initial residual = 0.07378499, Final residual = 0.0003400851, No Iterations 3
GAMG:  Solving for p, Initial residual = 0.0003370307, Final residual = 1.627371e-06, No Iterations 5
time step continuity errors : sum local = 9.589605e-07, global = -3.994162e-07, cumulative = -3.730233e-06
ExecutionTime = 32.18 s  ClockTime = 32 s

Time = 14

DILUPBiCGStab:  Solving for Ux, Initial residual = 0.02993123, Final residual = 0.000674878, No Iterations 1
DILUPBiCGStab:  Solving for Uy, Initial residual = 0.05247886, Final residual = 0.001106232, No Iterations 1
DILUPBiCGStab:  Solving for Uz, Initial residual = 0.05267422, Final residual = 0.001112067, No Iterations 1
GAMG:  Solving for p, Initial residual = 0.07349923, Final residual = 0.0003324305, No Iterations 3
GAMG:  Solving for p, Initial residual = 0.0003292854, Final residual = 3.231491e-06, No Iterations 4
time step continuity errors : sum local = 1.903329e-06, global = 1.076203e-06, cumulative = -2.65403e-06
ExecutionTime = 34.05 s  ClockTime = 34 s

Time = 15

DILUPBiCGStab:  Solving for Ux, Initial residual = 0.02849718, Final residual = 0.0006273588, No Iterations 1
DILUPBiCGStab:  Solving for Uy, Initial residual = 0.05082505, Final residual = 0.001034448, No Iterations 1
DILUPBiCGStab:  Solving for Uz, Initial residual = 0.05102728, Final residual = 0.001040309, No Iterations 1
GAMG:  Solving for p, Initial residual = 0.07403579, Final residual = 0.0003284572, No Iterations 3
GAMG:  Solving for p, Initial residual = 0.0003248051, Final residual = 2.940591e-06, No Iterations 4
time step continuity errors : sum local = 1.730896e-06, global = 9.108826e-07, cumulative = -1.743147e-06
ExecutionTime = 36.19 s  ClockTime = 36 s

Time = 16

DILUPBiCGStab:  Solving for Ux, Initial residual = 0.02747003, Final residual = 0.0005899215, No Iterations 1
DILUPBiCGStab:  Solving for Uy, Initial residual = 0.04934146, Final residual = 0.0009718607, No Iterations 1
DILUPBiCGStab:  Solving for Uz, Initial residual = 0.04955081, Final residual = 0.0009778173, No Iterations 1
GAMG:  Solving for p, Initial residual = 0.07530031, Final residual = 0.0003226746, No Iterations 3
GAMG:  Solving for p, Initial residual = 0.00031926, Final residual = 2.642728e-06, No Iterations 4
time step continuity errors : sum local = 1.553605e-06, global = 7.350055e-07, cumulative = -1.008142e-06
ExecutionTime = 38.1 s  ClockTime = 38 s

Time = 17

DILUPBiCGStab:  Solving for Ux, Initial residual = 0.02621774, Final residual = 0.0005524254, No Iterations 1
DILUPBiCGStab:  Solving for Uy, Initial residual = 0.04806849, Final residual = 0.0009165056, No Iterations 1
DILUPBiCGStab:  Solving for Uz, Initial residual = 0.04828543, Final residual = 0.0009229444, No Iterations 1
GAMG:  Solving for p, Initial residual = 0.07429259, Final residual = 0.0003213128, No Iterations 3
GAMG:  Solving for p, Initial residual = 0.0003171848, Final residual = 2.401843e-06, No Iterations 4
time step continuity errors : sum local = 1.412954e-06, global = 5.885757e-07, cumulative = -4.195662e-07
ExecutionTime = 40.1 s  ClockTime = 40 s

Time = 18

DILUPBiCGStab:  Solving for Ux, Initial residual = 0.02523582, Final residual = 0.0005219045, No Iterations 1
DILUPBiCGStab:  Solving for Uy, Initial residual = 0.04683869, Final residual = 0.0008664119, No Iterations 1
DILUPBiCGStab:  Solving for Uz, Initial residual = 0.04706297, Final residual = 0.0008732811, No Iterations 1
GAMG:  Solving for p, Initial residual = 0.07545089, Final residual = 0.000318615, No Iterations 3
GAMG:  Solving for p, Initial residual = 0.0003141325, Final residual = 2.204346e-06, No Iterations 4
time step continuity errors : sum local = 1.30016e-06, global = 4.812199e-07, cumulative = 6.165369e-08
ExecutionTime = 42.22 s  ClockTime = 42 s

Time = 19

DILUPBiCGStab:  Solving for Ux, Initial residual = 0.02431354, Final residual = 0.000494027, No Iterations 1
DILUPBiCGStab:  Solving for Uy, Initial residual = 0.0457423, Final residual = 0.0008234103, No Iterations 1
DILUPBiCGStab:  Solving for Uz, Initial residual = 0.045986, Final residual = 0.0008309739, No Iterations 1
GAMG:  Solving for p, Initial residual = 0.07522105, Final residual = 0.0003174125, No Iterations 3
GAMG:  Solving for p, Initial residual = 0.0003126848, Final residual = 2.102451e-06, No Iterations 4
time step continuity errors : sum local = 1.241574e-06, global = 4.144211e-07, cumulative = 4.760748e-07
ExecutionTime = 44.22 s  ClockTime = 44 s

Time = 20

DILUPBiCGStab:  Solving for Ux, Initial residual = 0.0235845, Final residual = 0.0004702833, No Iterations 1
DILUPBiCGStab:  Solving for Uy, Initial residual = 0.04469029, Final residual = 0.0007846421, No Iterations 1
DILUPBiCGStab:  Solving for Uz, Initial residual = 0.04495419, Final residual = 0.0007930231, No Iterations 1
GAMG:  Solving for p, Initial residual = 0.07607092, Final residual = 0.000315883, No Iterations 3
GAMG:  Solving for p, Initial residual = 0.0003110599, Final residual = 2.115369e-06, No Iterations 4
time step continuity errors : sum local = 1.251013e-06, global = 3.785065e-07, cumulative = 8.545813e-07
ExecutionTime = 46.35 s  ClockTime = 47 s

Time = 21

DILUPBiCGStab:  Solving for Ux, Initial residual = 0.02279466, Final residual = 0.0004472888, No Iterations 1
DILUPBiCGStab:  Solving for Uy, Initial residual = 0.04365163, Final residual = 0.0007490456, No Iterations 1
DILUPBiCGStab:  Solving for Uz, Initial residual = 0.04393547, Final residual = 0.0007582621, No Iterations 1
GAMG:  Solving for p, Initial residual = 0.07624903, Final residual = 0.0003173963, No Iterations 3
GAMG:  Solving for p, Initial residual = 0.0003124373, Final residual = 2.185919e-06, No Iterations 4
time step continuity errors : sum local = 1.296835e-06, global = 3.49514e-07, cumulative = 1.204095e-06
ExecutionTime = 48.98 s  ClockTime = 49 s

Time = 22

DILUPBiCGStab:  Solving for Ux, Initial residual = 0.02213357, Final residual = 0.0004276903, No Iterations 1
DILUPBiCGStab:  Solving for Uy, Initial residual = 0.0426936, Final residual = 0.0007171686, No Iterations 1
DILUPBiCGStab:  Solving for Uz, Initial residual = 0.04301293, Final residual = 0.0007273921, No Iterations 1
GAMG:  Solving for p, Initial residual = 0.07637707, Final residual = 0.0003246817, No Iterations 3
GAMG:  Solving for p, Initial residual = 0.0003197238, Final residual = 2.281745e-06, No Iterations 4
time step continuity errors : sum local = 1.356288e-06, global = 3.39131e-07, cumulative = 1.543226e-06
ExecutionTime = 51.26 s  ClockTime = 52 s

Time = 23

DILUPBiCGStab:  Solving for Ux, Initial residual = 0.02159507, Final residual = 0.0004105425, No Iterations 1
DILUPBiCGStab:  Solving for Uy, Initial residual = 0.04188248, Final residual = 0.0006891914, No Iterations 1
DILUPBiCGStab:  Solving for Uz, Initial residual = 0.04222307, Final residual = 0.0007002988, No Iterations 1
GAMG:  Solving for p, Initial residual = 0.07743392, Final residual = 0.000335142, No Iterations 3
GAMG:  Solving for p, Initial residual = 0.000330051, Final residual = 2.39646e-06, No Iterations 4
time step continuity errors : sum local = 1.425251e-06, global = 3.549619e-07, cumulative = 1.898188e-06
ExecutionTime = 53.55 s  ClockTime = 54 s

Time = 24

DILUPBiCGStab:  Solving for Ux, Initial residual = 0.02103851, Final residual = 0.000394503, No Iterations 1
DILUPBiCGStab:  Solving for Uy, Initial residual = 0.04106451, Final residual = 0.0006632159, No Iterations 1
DILUPBiCGStab:  Solving for Uz, Initial residual = 0.04145166, Final residual = 0.0006754877, No Iterations 1
GAMG:  Solving for p, Initial residual = 0.07793553, Final residual = 0.0003439633, No Iterations 3
GAMG:  Solving for p, Initial residual = 0.0003385875, Final residual = 2.525969e-06, No Iterations 4
time step continuity errors : sum local = 1.506355e-06, global = 3.805567e-07, cumulative = 2.278745e-06
ExecutionTime = 55.92 s  ClockTime = 56 s

Time = 25

DILUPBiCGStab:  Solving for Ux, Initial residual = 0.020555, Final residual = 0.0003803335, No Iterations 1
DILUPBiCGStab:  Solving for Uy, Initial residual = 0.04024129, Final residual = 0.0006385685, No Iterations 1
DILUPBiCGStab:  Solving for Uz, Initial residual = 0.040669, Final residual = 0.0006519081, No Iterations 1
GAMG:  Solving for p, Initial residual = 0.07852686, Final residual = 0.0003493044, No Iterations 3
GAMG:  Solving for p, Initial residual = 0.0003438045, Final residual = 2.669721e-06, No Iterations 4
time step continuity errors : sum local = 1.594519e-06, global = 4.045908e-07, cumulative = 2.683336e-06
ExecutionTime = 58.43 s  ClockTime = 59 s

Time = 26

DILUPBiCGStab:  Solving for Ux, Initial residual = 0.02014642, Final residual = 0.0003680641, No Iterations 1
DILUPBiCGStab:  Solving for Uy, Initial residual = 0.03950333, Final residual = 0.0006168518, No Iterations 1
DILUPBiCGStab:  Solving for Uz, Initial residual = 0.03996216, Final residual = 0.0006310856, No Iterations 1
GAMG:  Solving for p, Initial residual = 0.07886846, Final residual = 0.0003508161, No Iterations 3
GAMG:  Solving for p, Initial residual = 0.0003453396, Final residual = 2.818221e-06, No Iterations 4
time step continuity errors : sum local = 1.687912e-06, global = 4.401032e-07, cumulative = 3.123439e-06
ExecutionTime = 60.68 s  ClockTime = 61 s

Time = 27

DILUPBiCGStab:  Solving for Ux, Initial residual = 0.01976819, Final residual = 0.0003569143, No Iterations 1
DILUPBiCGStab:  Solving for Uy, Initial residual = 0.03879493, Final residual = 0.0005965859, No Iterations 1
DILUPBiCGStab:  Solving for Uz, Initial residual = 0.03930588, Final residual = 0.0006119828, No Iterations 1
GAMG:  Solving for p, Initial residual = 0.07991172, Final residual = 0.0003521184, No Iterations 3
GAMG:  Solving for p, Initial residual = 0.000346327, Final residual = 2.968452e-06, No Iterations 4
time step continuity errors : sum local = 1.779427e-06, global = 4.87169e-07, cumulative = 3.610608e-06
ExecutionTime = 62.95 s  ClockTime = 63 s

Time = 28

DILUPBiCGStab:  Solving for Ux, Initial residual = 0.01942525, Final residual = 0.0003469558, No Iterations 1
DILUPBiCGStab:  Solving for Uy, Initial residual = 0.03808038, Final residual = 0.0005771774, No Iterations 1
DILUPBiCGStab:  Solving for Uz, Initial residual = 0.03864548, Final residual = 0.0005934753, No Iterations 1
GAMG:  Solving for p, Initial residual = 0.0804612, Final residual = 0.0003489536, No Iterations 3
GAMG:  Solving for p, Initial residual = 0.0003431447, Final residual = 3.095588e-06, No Iterations 4
time step continuity errors : sum local = 1.867226e-06, global = 5.335989e-07, cumulative = 4.144207e-06
ExecutionTime = 65.72 s  ClockTime = 66 s

Time = 29

DILUPBiCGStab:  Solving for Ux, Initial residual = 0.01912812, Final residual = 0.000338134, No Iterations 1
DILUPBiCGStab:  Solving for Uy, Initial residual = 0.03736789, Final residual = 0.0005584941, No Iterations 1
DILUPBiCGStab:  Solving for Uz, Initial residual = 0.03800292, Final residual = 0.000576102, No Iterations 1
GAMG:  Solving for p, Initial residual = 0.08257058, Final residual = 0.0003458512, No Iterations 3
GAMG:  Solving for p, Initial residual = 0.0003394816, Final residual = 3.199575e-06, No Iterations 4
time step continuity errors : sum local = 1.928708e-06, global = 5.750981e-07, cumulative = 4.719305e-06
ExecutionTime = 68.04 s  ClockTime = 68 s

Time = 30

DILUPBiCGStab:  Solving for Ux, Initial residual = 0.01891208, Final residual = 0.0003303238, No Iterations 1
DILUPBiCGStab:  Solving for Uy, Initial residual = 0.03670181, Final residual = 0.0005411409, No Iterations 1
DILUPBiCGStab:  Solving for Uz, Initial residual = 0.03737269, Final residual = 0.0005597654, No Iterations 1
GAMG:  Solving for p, Initial residual = 0.08461397, Final residual = 0.0003387016, No Iterations 3
GAMG:  Solving for p, Initial residual = 0.0003321745, Final residual = 3.253107e-06, No Iterations 4
time step continuity errors : sum local = 1.962042e-06, global = 6.150467e-07, cumulative = 5.334352e-06
ExecutionTime = 70.35 s  ClockTime = 71 s

Time = 31

DILUPBiCGStab:  Solving for Ux, Initial residual = 0.01873101, Final residual = 0.0003232268, No Iterations 1
DILUPBiCGStab:  Solving for Uy, Initial residual = 0.03600657, Final residual = 0.000523847, No Iterations 1
DILUPBiCGStab:  Solving for Uz, Initial residual = 0.03670993, Final residual = 0.0005437856, No Iterations 1
GAMG:  Solving for p, Initial residual = 0.08810845, Final residual = 0.0003156612, No Iterations 3
GAMG:  Solving for p, Initial residual = 0.0003095265, Final residual = 3.025663e-06, No Iterations 4
time step continuity errors : sum local = 1.865004e-06, global = 5.890752e-07, cumulative = 5.923427e-06
ExecutionTime = 72.39 s  ClockTime = 73 s

Time = 32

DILUPBiCGStab:  Solving for Ux, Initial residual = 0.01875501, Final residual = 0.0003155934, No Iterations 1
DILUPBiCGStab:  Solving for Uy, Initial residual = 0.0354302, Final residual = 0.0005088453, No Iterations 1
DILUPBiCGStab:  Solving for Uz, Initial residual = 0.03618069, Final residual = 0.000530036, No Iterations 1
GAMG:  Solving for p, Initial residual = 0.09595634, Final residual = 0.0003407163, No Iterations 3
GAMG:  Solving for p, Initial residual = 0.0003328999, Final residual = 3.147522e-06, No Iterations 4
time step continuity errors : sum local = 1.91017e-06, global = 6.715314e-07, cumulative = 6.594958e-06
ExecutionTime = 74.39 s  ClockTime = 75 s

Time = 33

DILUPBiCGStab:  Solving for Ux, Initial residual = 0.01874366, Final residual = 0.0003024476, No Iterations 1
DILUPBiCGStab:  Solving for Uy, Initial residual = 0.03491992, Final residual = 0.0004940323, No Iterations 1
DILUPBiCGStab:  Solving for Uz, Initial residual = 0.03580833, Final residual = 0.0005179478, No Iterations 1
GAMG:  Solving for p, Initial residual = 0.09868274, Final residual = 0.0003248152, No Iterations 3
GAMG:  Solving for p, Initial residual = 0.0003177026, Final residual = 2.758853e-06, No Iterations 4
time step continuity errors : sum local = 1.685637e-06, global = 6.76517e-07, cumulative = 7.271475e-06
ExecutionTime = 76.41 s  ClockTime = 77 s

Time = 34

DILUPBiCGStab:  Solving for Ux, Initial residual = 0.01868329, Final residual = 0.0002946882, No Iterations 1
DILUPBiCGStab:  Solving for Uy, Initial residual = 0.03439602, Final residual = 0.0004800952, No Iterations 1
DILUPBiCGStab:  Solving for Uz, Initial residual = 0.03537521, Final residual = 0.000504965, No Iterations 1
GAMG:  Solving for p, Initial residual = 0.1022929, Final residual = 0.0003155752, No Iterations 3
GAMG:  Solving for p, Initial residual = 0.0003086548, Final residual = 2.298715e-06, No Iterations 4
time step continuity errors : sum local = 1.429223e-06, global = 6.678011e-07, cumulative = 7.939276e-06
ExecutionTime = 78.33 s  ClockTime = 79 s

Time = 35

DILUPBiCGStab:  Solving for Ux, Initial residual = 0.01865634, Final residual = 0.0002875028, No Iterations 1
DILUPBiCGStab:  Solving for Uy, Initial residual = 0.03396226, Final residual = 0.003381502, No Iterations 1
DILUPBiCGStab:  Solving for Uz, Initial residual = 0.03496369, Final residual = 0.0004924225, No Iterations 1
GAMG:  Solving for p, Initial residual = 0.1100682, Final residual = 0.0003025388, No Iterations 3
GAMG:  Solving for p, Initial residual = 0.0002957296, Final residual = 1.83435e-06, No Iterations 4
time step continuity errors : sum local = 1.161607e-06, global = 3.710347e-07, cumulative = 8.310311e-06
ExecutionTime = 80.49 s  ClockTime = 81 s

Time = 36

DILUPBiCGStab:  Solving for Ux, Initial residual = 0.01886115, Final residual = 0.0002778519, No Iterations 1
DILUPBiCGStab:  Solving for Uy, Initial residual = 0.03386011, Final residual = 0.003379605, No Iterations 1
DILUPBiCGStab:  Solving for Uz, Initial residual = 0.03459459, Final residual = 0.003459338, No Iterations 1
GAMG:  Solving for p, Initial residual = 0.1129171, Final residual = 0.0003335088, No Iterations 3
GAMG:  Solving for p, Initial residual = 0.0003273885, Final residual = 2.520088e-06, No Iterations 4
time step continuity errors : sum local = 1.606158e-06, global = 2.816331e-07, cumulative = 8.591944e-06
ExecutionTime = 82.57 s  ClockTime = 83 s

Time = 37

DILUPBiCGStab:  Solving for Ux, Initial residual = 0.01876, Final residual = 0.0002695784, No Iterations 1
DILUPBiCGStab:  Solving for Uy, Initial residual = 0.03361112, Final residual = 0.0004648178, No Iterations 1
DILUPBiCGStab:  Solving for Uz, Initial residual = 0.03431983, Final residual = 0.0004825751, No Iterations 1
GAMG:  Solving for p, Initial residual = 0.1112913, Final residual = 0.0003323074, No Iterations 3
GAMG:  Solving for p, Initial residual = 0.000326364, Final residual = 2.533126e-06, No Iterations 4
time step continuity errors : sum local = 1.62945e-06, global = 5.29673e-07, cumulative = 9.121617e-06
ExecutionTime = 84.58 s  ClockTime = 85 s

Time = 38

DILUPBiCGStab:  Solving for Ux, Initial residual = 0.01858194, Final residual = 0.0002629363, No Iterations 1
DILUPBiCGStab:  Solving for Uy, Initial residual = 0.03324151, Final residual = 0.003267863, No Iterations 1
DILUPBiCGStab:  Solving for Uz, Initial residual = 0.03403828, Final residual = 0.00335015, No Iterations 1
GAMG:  Solving for p, Initial residual = 0.1097711, Final residual = 0.0003112491, No Iterations 3
GAMG:  Solving for p, Initial residual = 0.0003061428, Final residual = 2.70882e-06, No Iterations 4
time step continuity errors : sum local = 1.765484e-06, global = 2.869768e-07, cumulative = 9.408594e-06
ExecutionTime = 86.56 s  ClockTime = 87 s

Time = 39

DILUPBiCGStab:  Solving for Ux, Initial residual = 0.01839876, Final residual = 0.0002578467, No Iterations 1
DILUPBiCGStab:  Solving for Uy, Initial residual = 0.03305936, Final residual = 0.003251839, No Iterations 1
DILUPBiCGStab:  Solving for Uz, Initial residual = 0.03363342, Final residual = 0.003310741, No Iterations 1
GAMG:  Solving for p, Initial residual = 0.1084932, Final residual = 0.0003175609, No Iterations 3
GAMG:  Solving for p, Initial residual = 0.0003135634, Final residual = 9.400104e-07, No Iterations 5
time step continuity errors : sum local = 6.218078e-07, global = -2.90642e-08, cumulative = 9.37953e-06
ExecutionTime = 88.53 s  ClockTime = 89 s

Time = 40

DILUPBiCGStab:  Solving for Ux, Initial residual = 0.01817041, Final residual = 0.0002516207, No Iterations 1
DILUPBiCGStab:  Solving for Uy, Initial residual = 0.03295179, Final residual = 0.00322332, No Iterations 1
DILUPBiCGStab:  Solving for Uz, Initial residual = 0.03317789, Final residual = 0.003274223, No Iterations 1
GAMG:  Solving for p, Initial residual = 0.1048118, Final residual = 0.000316447, No Iterations 3
GAMG:  Solving for p, Initial residual = 0.0003137793, Final residual = 3.094935e-06, No Iterations 4
time step continuity errors : sum local = 2.072489e-06, global = 2.572876e-07, cumulative = 9.636818e-06
ExecutionTime = 90.68 s  ClockTime = 91 s

Time = 41

DILUPBiCGStab:  Solving for Ux, Initial residual = 0.01789325, Final residual = 0.0002457474, No Iterations 1
DILUPBiCGStab:  Solving for Uy, Initial residual = 0.03271601, Final residual = 0.003198297, No Iterations 1
DILUPBiCGStab:  Solving for Uz, Initial residual = 0.03288819, Final residual = 0.003236309, No Iterations 1
GAMG:  Solving for p, Initial residual = 0.1011888, Final residual = 0.0002919468, No Iterations 3
GAMG:  Solving for p, Initial residual = 0.0002894729, Final residual = 2.523588e-06, No Iterations 4
time step continuity errors : sum local = 1.661191e-06, global = 3.057826e-07, cumulative = 9.9426e-06
ExecutionTime = 92.61 s  ClockTime = 93 s

Time = 42

DILUPBiCGStab:  Solving for Ux, Initial residual = 0.01766137, Final residual = 0.0002421549, No Iterations 1
DILUPBiCGStab:  Solving for Uy, Initial residual = 0.03244318, Final residual = 0.003163931, No Iterations 1
DILUPBiCGStab:  Solving for Uz, Initial residual = 0.03257602, Final residual = 0.003180251, No Iterations 1
GAMG:  Solving for p, Initial residual = 0.09677592, Final residual = 0.0002501474, No Iterations 3
GAMG:  Solving for p, Initial residual = 0.0002482555, Final residual = 1.765277e-06, No Iterations 4
time step continuity errors : sum local = 1.1751e-06, global = 3.312181e-07, cumulative = 1.027382e-05
ExecutionTime = 94.53 s  ClockTime = 95 s

Time = 43

DILUPBiCGStab:  Solving for Ux, Initial residual = 0.01752462, Final residual = 0.0002391757, No Iterations 1
DILUPBiCGStab:  Solving for Uy, Initial residual = 0.03207181, Final residual = 0.003122429, No Iterations 1
DILUPBiCGStab:  Solving for Uz, Initial residual = 0.03218905, Final residual = 0.00312988, No Iterations 1
GAMG:  Solving for p, Initial residual = 0.09477879, Final residual = 0.0002292736, No Iterations 3
GAMG:  Solving for p, Initial residual = 0.0002282961, Final residual = 1.527848e-06, No Iterations 4
time step continuity errors : sum local = 1.024688e-06, global = 5.059061e-07, cumulative = 1.077972e-05
ExecutionTime = 96.76 s  ClockTime = 97 s

Time = 44

DILUPBiCGStab:  Solving for Ux, Initial residual = 0.01745691, Final residual = 0.0002369217, No Iterations 1
DILUPBiCGStab:  Solving for Uy, Initial residual = 0.03167553, Final residual = 0.003066217, No Iterations 1
DILUPBiCGStab:  Solving for Uz, Initial residual = 0.03163806, Final residual = 0.003085167, No Iterations 1
GAMG:  Solving for p, Initial residual = 0.09439104, Final residual = 0.0009421409, No Iterations 2
GAMG:  Solving for p, Initial residual = 0.0009393, Final residual = 6.484036e-06, No Iterations 4
time step continuity errors : sum local = 4.329054e-06, global = 1.878685e-06, cumulative = 1.265841e-05
ExecutionTime = 98.54 s  ClockTime = 99 s

Time = 45

DILUPBiCGStab:  Solving for Ux, Initial residual = 0.01736032, Final residual = 0.000233325, No Iterations 1
DILUPBiCGStab:  Solving for Uy, Initial residual = 0.03118347, Final residual = 0.003017824, No Iterations 1
DILUPBiCGStab:  Solving for Uz, Initial residual = 0.03112557, Final residual = 0.003046495, No Iterations 1
GAMG:  Solving for p, Initial residual = 0.09163334, Final residual = 0.0002395996, No Iterations 3
GAMG:  Solving for p, Initial residual = 0.0002391603, Final residual = 2.193779e-06, No Iterations 4
time step continuity errors : sum local = 1.453716e-06, global = 6.198975e-07, cumulative = 1.327831e-05
ExecutionTime = 100.53 s  ClockTime = 101 s

Time = 46

DILUPBiCGStab:  Solving for Ux, Initial residual = 0.0172812, Final residual = 0.0002288184, No Iterations 1
DILUPBiCGStab:  Solving for Uy, Initial residual = 0.03063869, Final residual = 0.002961297, No Iterations 1
DILUPBiCGStab:  Solving for Uz, Initial residual = 0.03063324, Final residual = 0.002991201, No Iterations 1
GAMG:  Solving for p, Initial residual = 0.09022568, Final residual = 0.0008798666, No Iterations 2
GAMG:  Solving for p, Initial residual = 0.0008791515, Final residual = 5.917537e-06, No Iterations 4
time step continuity errors : sum local = 4.019942e-06, global = 1.892952e-06, cumulative = 1.517126e-05
ExecutionTime = 102.61 s  ClockTime = 103 s

Time = 47

DILUPBiCGStab:  Solving for Ux, Initial residual = 0.01739648, Final residual = 0.001712448, No Iterations 1
DILUPBiCGStab:  Solving for Uy, Initial residual = 0.03018585, Final residual = 0.002903876, No Iterations 1
DILUPBiCGStab:  Solving for Uz, Initial residual = 0.03018778, Final residual = 0.002939492, No Iterations 1
GAMG:  Solving for p, Initial residual = 0.09471853, Final residual = 0.00027323, No Iterations 3
GAMG:  Solving for p, Initial residual = 0.0002735587, Final residual = 1.067036e-06, No Iterations 5
time step continuity errors : sum local = 7.199637e-07, global = 3.205139e-07, cumulative = 1.549177e-05
ExecutionTime = 104.56 s  ClockTime = 105 s

Time = 48

DILUPBiCGStab:  Solving for Ux, Initial residual = 0.01754071, Final residual = 0.001699331, No Iterations 1
DILUPBiCGStab:  Solving for Uy, Initial residual = 0.02976039, Final residual = 0.002800711, No Iterations 1
DILUPBiCGStab:  Solving for Uz, Initial residual = 0.02978031, Final residual = 0.00285117, No Iterations 1
GAMG:  Solving for p, Initial residual = 0.0944431, Final residual = 0.0009310803, No Iterations 2
GAMG:  Solving for p, Initial residual = 0.0009342606, Final residual = 7.487685e-06, No Iterations 4
time step continuity errors : sum local = 5.080172e-06, global = 2.46364e-06, cumulative = 1.795541e-05
ExecutionTime = 106.53 s  ClockTime = 107 s

Time = 49

DILUPBiCGStab:  Solving for Ux, Initial residual = 0.01750407, Final residual = 0.001691875, No Iterations 1
DILUPBiCGStab:  Solving for Uy, Initial residual = 0.0292936, Final residual = 0.002729168, No Iterations 1
DILUPBiCGStab:  Solving for Uz, Initial residual = 0.0293245, Final residual = 0.002792366, No Iterations 1
GAMG:  Solving for p, Initial residual = 0.09772888, Final residual = 0.0008761286, No Iterations 2
GAMG:  Solving for p, Initial residual = 0.0008761716, Final residual = 5.782681e-06, No Iterations 4
time step continuity errors : sum local = 3.974289e-06, global = 2.0348e-06, cumulative = 1.999021e-05
ExecutionTime = 108.27 s  ClockTime = 109 s

Time = 50

DILUPBiCGStab:  Solving for Ux, Initial residual = 0.01773066, Final residual = 0.001683225, No Iterations 1
DILUPBiCGStab:  Solving for Uy, Initial residual = 0.02902813, Final residual = 0.002670119, No Iterations 1
DILUPBiCGStab:  Solving for Uz, Initial residual = 0.02909452, Final residual = 0.002735965, No Iterations 1
GAMG:  Solving for p, Initial residual = 0.09951989, Final residual = 0.0008914985, No Iterations 2
GAMG:  Solving for p, Initial residual = 0.000895498, Final residual = 6.00647e-06, No Iterations 4
time step continuity errors : sum local = 4.127927e-06, global = 2.167833e-06, cumulative = 2.215805e-05
ExecutionTime = 110.1 s  ClockTime = 111 s

Time = 51

DILUPBiCGStab:  Solving for Ux, Initial residual = 0.01768543, Final residual = 0.001673615, No Iterations 1
DILUPBiCGStab:  Solving for Uy, Initial residual = 0.02863276, Final residual = 0.002620533, No Iterations 1
DILUPBiCGStab:  Solving for Uz, Initial residual = 0.02861404, Final residual = 0.002680484, No Iterations 1
GAMG:  Solving for p, Initial residual = 0.1022578, Final residual = 0.0008981552, No Iterations 2
GAMG:  Solving for p, Initial residual = 0.0009035798, Final residual = 6.110351e-06, No Iterations 4
time step continuity errors : sum local = 4.186357e-06, global = 2.229036e-06, cumulative = 2.438708e-05
ExecutionTime = 112.73 s  ClockTime = 113 s

Time = 52

DILUPBiCGStab:  Solving for Ux, Initial residual = 0.01772494, Final residual = 0.001673279, No Iterations 1
DILUPBiCGStab:  Solving for Uy, Initial residual = 0.02838494, Final residual = 0.002578531, No Iterations 1
DILUPBiCGStab:  Solving for Uz, Initial residual = 0.02823833, Final residual = 0.002645533, No Iterations 1
GAMG:  Solving for p, Initial residual = 0.1027458, Final residual = 0.0008991685, No Iterations 2
GAMG:  Solving for p, Initial residual = 0.0009047492, Final residual = 6.104574e-06, No Iterations 4
time step continuity errors : sum local = 4.148742e-06, global = 2.236215e-06, cumulative = 2.66233e-05
ExecutionTime = 114.45 s  ClockTime = 115 s

Time = 53

DILUPBiCGStab:  Solving for Ux, Initial residual = 0.01762545, Final residual = 0.001665665, No Iterations 1
DILUPBiCGStab:  Solving for Uy, Initial residual = 0.02810647, Final residual = 0.002526934, No Iterations 1
DILUPBiCGStab:  Solving for Uz, Initial residual = 0.02780257, Final residual = 0.002584095, No Iterations 1
GAMG:  Solving for p, Initial residual = 0.1039436, Final residual = 0.0008798932, No Iterations 2
GAMG:  Solving for p, Initial residual = 0.0008861594, Final residual = 5.911625e-06, No Iterations 4
time step continuity errors : sum local = 3.960234e-06, global = 2.17254e-06, cumulative = 2.879584e-05
ExecutionTime = 116.25 s  ClockTime = 117 s

Time = 54

DILUPBiCGStab:  Solving for Ux, Initial residual = 0.01757169, Final residual = 0.001662252, No Iterations 1
DILUPBiCGStab:  Solving for Uy, Initial residual = 0.02778432, Final residual = 0.00249062, No Iterations 1
DILUPBiCGStab:  Solving for Uz, Initial residual = 0.02737277, Final residual = 0.002531654, No Iterations 1
GAMG:  Solving for p, Initial residual = 0.1037163, Final residual = 0.0008919241, No Iterations 2
GAMG:  Solving for p, Initial residual = 0.0008961705, Final residual = 6.104864e-06, No Iterations 4
time step continuity errors : sum local = 4.039729e-06, global = 2.231711e-06, cumulative = 3.102755e-05
ExecutionTime = 118.07 s  ClockTime = 119 s

Time = 55

DILUPBiCGStab:  Solving for Ux, Initial residual = 0.01744106, Final residual = 0.001656531, No Iterations 1
DILUPBiCGStab:  Solving for Uy, Initial residual = 0.02743896, Final residual = 0.002448572, No Iterations 1
DILUPBiCGStab:  Solving for Uz, Initial residual = 0.02691462, Final residual = 0.002483317, No Iterations 1
GAMG:  Solving for p, Initial residual = 0.1029066, Final residual = 0.000886309, No Iterations 2
GAMG:  Solving for p, Initial residual = 0.0008924241, Final residual = 6.087327e-06, No Iterations 4
time step continuity errors : sum local = 3.924923e-06, global = 2.179001e-06, cumulative = 3.320655e-05
ExecutionTime = 119.92 s  ClockTime = 121 s

Time = 56

DILUPBiCGStab:  Solving for Ux, Initial residual = 0.01731121, Final residual = 0.001647962, No Iterations 1
DILUPBiCGStab:  Solving for Uy, Initial residual = 0.02707705, Final residual = 0.002409573, No Iterations 1
DILUPBiCGStab:  Solving for Uz, Initial residual = 0.02652168, Final residual = 0.002428405, No Iterations 1
GAMG:  Solving for p, Initial residual = 0.1028925, Final residual = 0.0008803515, No Iterations 2
GAMG:  Solving for p, Initial residual = 0.0008853854, Final residual = 5.861909e-06, No Iterations 4
time step continuity errors : sum local = 3.671343e-06, global = 2.061572e-06, cumulative = 3.526812e-05
ExecutionTime = 121.91 s  ClockTime = 123 s

Time = 57

DILUPBiCGStab:  Solving for Ux, Initial residual = 0.01721003, Final residual = 0.001640433, No Iterations 1
DILUPBiCGStab:  Solving for Uy, Initial residual = 0.02674168, Final residual = 0.002367431, No Iterations 1
DILUPBiCGStab:  Solving for Uz, Initial residual = 0.02606449, Final residual = 0.002381469, No Iterations 1
GAMG:  Solving for p, Initial residual = 0.1014862, Final residual = 0.0008793576, No Iterations 2
GAMG:  Solving for p, Initial residual = 0.0008824577, Final residual = 5.780851e-06, No Iterations 4
time step continuity errors : sum local = 3.454842e-06, global = 1.902278e-06, cumulative = 3.71704e-05
ExecutionTime = 123.82 s  ClockTime = 124 s

Time = 58

DILUPBiCGStab:  Solving for Ux, Initial residual = 0.01706223, Final residual = 0.001630021, No Iterations 1
DILUPBiCGStab:  Solving for Uy, Initial residual = 0.02629495, Final residual = 0.002320354, No Iterations 1
DILUPBiCGStab:  Solving for Uz, Initial residual = 0.02555953, Final residual = 0.002331158, No Iterations 1
GAMG:  Solving for p, Initial residual = 0.09719369, Final residual = 0.0008509179, No Iterations 2
GAMG:  Solving for p, Initial residual = 0.0008485599, Final residual = 5.488519e-06, No Iterations 4
time step continuity errors : sum local = 3.17088e-06, global = 1.721556e-06, cumulative = 3.889195e-05
ExecutionTime = 126.06 s  ClockTime = 127 s

Time = 59

DILUPBiCGStab:  Solving for Ux, Initial residual = 0.01692843, Final residual = 0.001620432, No Iterations 1
DILUPBiCGStab:  Solving for Uy, Initial residual = 0.02586684, Final residual = 0.002283467, No Iterations 1
DILUPBiCGStab:  Solving for Uz, Initial residual = 0.02504813, Final residual = 0.002282022, No Iterations 1
GAMG:  Solving for p, Initial residual = 0.0917972, Final residual = 0.0007995489, No Iterations 2
GAMG:  Solving for p, Initial residual = 0.000793917, Final residual = 4.980187e-06, No Iterations 4
time step continuity errors : sum local = 2.820631e-06, global = 1.544091e-06, cumulative = 4.043605e-05
ExecutionTime = 127.9 s  ClockTime = 129 s

Time = 60

DILUPBiCGStab:  Solving for Ux, Initial residual = 0.01679611, Final residual = 0.001614783, No Iterations 1
DILUPBiCGStab:  Solving for Uy, Initial residual = 0.02543472, Final residual = 0.002247073, No Iterations 1
DILUPBiCGStab:  Solving for Uz, Initial residual = 0.02453619, Final residual = 0.00223577, No Iterations 1
GAMG:  Solving for p, Initial residual = 0.08559411, Final residual = 0.0007433713, No Iterations 2
GAMG:  Solving for p, Initial residual = 0.0007353592, Final residual = 4.51002e-06, No Iterations 4
time step continuity errors : sum local = 2.525783e-06, global = 1.404779e-06, cumulative = 4.184083e-05
ExecutionTime = 129.71 s  ClockTime = 130 s

Time = 61

DILUPBiCGStab:  Solving for Ux, Initial residual = 0.01668932, Final residual = 0.001619069, No Iterations 1
DILUPBiCGStab:  Solving for Uy, Initial residual = 0.02501056, Final residual = 0.002211897, No Iterations 1
DILUPBiCGStab:  Solving for Uz, Initial residual = 0.02403663, Final residual = 0.002198326, No Iterations 1
GAMG:  Solving for p, Initial residual = 0.07962218, Final residual = 0.0006927098, No Iterations 2
GAMG:  Solving for p, Initial residual = 0.0006833949, Final residual = 4.128044e-06, No Iterations 4
time step continuity errors : sum local = 2.296855e-06, global = 1.30248e-06, cumulative = 4.314331e-05
ExecutionTime = 131.59 s  ClockTime = 132 s

Time = 62

DILUPBiCGStab:  Solving for Ux, Initial residual = 0.01666374, Final residual = 0.00163615, No Iterations 1
DILUPBiCGStab:  Solving for Uy, Initial residual = 0.02459858, Final residual = 0.002194363, No Iterations 1
DILUPBiCGStab:  Solving for Uz, Initial residual = 0.02359321, Final residual = 0.002168099, No Iterations 1
GAMG:  Solving for p, Initial residual = 0.07509632, Final residual = 0.000651457, No Iterations 2
GAMG:  Solving for p, Initial residual = 0.0006425786, Final residual = 3.940667e-06, No Iterations 4
time step continuity errors : sum local = 2.180511e-06, global = 1.239767e-06, cumulative = 4.438307e-05
ExecutionTime = 133.31 s  ClockTime = 134 s

Time = 63

DILUPBiCGStab:  Solving for Ux, Initial residual = 0.01669211, Final residual = 0.001658001, No Iterations 1
DILUPBiCGStab:  Solving for Uy, Initial residual = 0.0242927, Final residual = 0.002172352, No Iterations 1
DILUPBiCGStab:  Solving for Uz, Initial residual = 0.02320209, Final residual = 0.002139848, No Iterations 1
GAMG:  Solving for p, Initial residual = 0.07209878, Final residual = 0.0006231256, No Iterations 2
GAMG:  Solving for p, Initial residual = 0.0006138495, Final residual = 3.825532e-06, No Iterations 4
time step continuity errors : sum local = 2.112786e-06, global = 1.196939e-06, cumulative = 4.558001e-05
ExecutionTime = 135.04 s  ClockTime = 136 s

Time = 64

DILUPBiCGStab:  Solving for Ux, Initial residual = 0.01675887, Final residual = 0.0002129852, No Iterations 1
DILUPBiCGStab:  Solving for Uy, Initial residual = 0.02408897, Final residual = 0.0021509, No Iterations 1
DILUPBiCGStab:  Solving for Uz, Initial residual = 0.02289434, Final residual = 0.002105139, No Iterations 1
GAMG:  Solving for p, Initial residual = 0.06911524, Final residual = 0.0006351547, No Iterations 2
GAMG:  Solving for p, Initial residual = 0.0006251791, Final residual = 4.699054e-06, No Iterations 4
time step continuity errors : sum local = 2.592266e-06, global = 1.419326e-06, cumulative = 4.699934e-05
ExecutionTime = 136.83 s  ClockTime = 138 s

Time = 65

DILUPBiCGStab:  Solving for Ux, Initial residual = 0.01678121, Final residual = 0.0002117745, No Iterations 1
DILUPBiCGStab:  Solving for Uy, Initial residual = 0.02362506, Final residual = 0.002132266, No Iterations 1
DILUPBiCGStab:  Solving for Uz, Initial residual = 0.02233944, Final residual = 0.002069329, No Iterations 1
GAMG:  Solving for p, Initial residual = 0.0663896, Final residual = 0.0005974422, No Iterations 2
GAMG:  Solving for p, Initial residual = 0.0005880541, Final residual = 4.351436e-06, No Iterations 4
time step continuity errors : sum local = 2.398848e-06, global = 1.326189e-06, cumulative = 4.832553e-05
ExecutionTime = 138.63 s  ClockTime = 139 s

Time = 66

DILUPBiCGStab:  Solving for Ux, Initial residual = 0.01689897, Final residual = 0.001682605, No Iterations 1
DILUPBiCGStab:  Solving for Uy, Initial residual = 0.02320192, Final residual = 0.002099946, No Iterations 1
DILUPBiCGStab:  Solving for Uz, Initial residual = 0.02185536, Final residual = 0.002024123, No Iterations 1
GAMG:  Solving for p, Initial residual = 0.06462023, Final residual = 0.0006244628, No Iterations 2
GAMG:  Solving for p, Initial residual = 0.0006140026, Final residual = 4.368864e-06, No Iterations 4
time step continuity errors : sum local = 2.41069e-06, global = 1.411782e-06, cumulative = 4.973731e-05
ExecutionTime = 140.62 s  ClockTime = 141 s

Time = 67

DILUPBiCGStab:  Solving for Ux, Initial residual = 0.01705858, Final residual = 0.001697341, No Iterations 1
DILUPBiCGStab:  Solving for Uy, Initial residual = 0.02312938, Final residual = 0.002051805, No Iterations 1
DILUPBiCGStab:  Solving for Uz, Initial residual = 0.0217087, Final residual = 0.001972087, No Iterations 1
GAMG:  Solving for p, Initial residual = 0.06296036, Final residual = 0.0005862037, No Iterations 2
GAMG:  Solving for p, Initial residual = 0.0005766868, Final residual = 4.057593e-06, No Iterations 4
time step continuity errors : sum local = 2.237782e-06, global = 1.298116e-06, cumulative = 5.103543e-05
ExecutionTime = 142.36 s  ClockTime = 143 s

Time = 68

DILUPBiCGStab:  Solving for Ux, Initial residual = 0.01721913, Final residual = 0.001710938, No Iterations 1
DILUPBiCGStab:  Solving for Uy, Initial residual = 0.02306268, Final residual = 0.002010326, No Iterations 1
DILUPBiCGStab:  Solving for Uz, Initial residual = 0.02156149, Final residual = 0.001925148, No Iterations 1
GAMG:  Solving for p, Initial residual = 0.06141585, Final residual = 0.0005530032, No Iterations 2
GAMG:  Solving for p, Initial residual = 0.0005440235, Final residual = 3.811533e-06, No Iterations 4
time step continuity errors : sum local = 2.102341e-06, global = 1.191383e-06, cumulative = 5.222681e-05
ExecutionTime = 144.14 s  ClockTime = 145 s

Time = 69

DILUPBiCGStab:  Solving for Ux, Initial residual = 0.01740684, Final residual = 0.001721804, No Iterations 1
DILUPBiCGStab:  Solving for Uy, Initial residual = 0.02295382, Final residual = 0.001983754, No Iterations 1
DILUPBiCGStab:  Solving for Uz, Initial residual = 0.02134994, Final residual = 0.001888658, No Iterations 1
GAMG:  Solving for p, Initial residual = 0.06004294, Final residual = 0.0005377527, No Iterations 2
GAMG:  Solving for p, Initial residual = 0.0005290986, Final residual = 3.761983e-06, No Iterations 4
time step continuity errors : sum local = 2.075981e-06, global = 1.157172e-06, cumulative = 5.338398e-05
ExecutionTime = 146.04 s  ClockTime = 147 s

Time = 70

DILUPBiCGStab:  Solving for Ux, Initial residual = 0.01758436, Final residual = 0.001729421, No Iterations 1
DILUPBiCGStab:  Solving for Uy, Initial residual = 0.02279937, Final residual = 0.001965015, No Iterations 1
DILUPBiCGStab:  Solving for Uz, Initial residual = 0.02110019, Final residual = 0.001856641, No Iterations 1
GAMG:  Solving for p, Initial residual = 0.05836814, Final residual = 0.0005287145, No Iterations 2
GAMG:  Solving for p, Initial residual = 0.0005203643, Final residual = 3.697966e-06, No Iterations 4
time step continuity errors : sum local = 2.03967e-06, global = 1.136291e-06, cumulative = 5.452027e-05
ExecutionTime = 148.01 s  ClockTime = 149 s

Time = 71

DILUPBiCGStab:  Solving for Ux, Initial residual = 0.01776171, Final residual = 0.001737267, No Iterations 1
DILUPBiCGStab:  Solving for Uy, Initial residual = 0.02264624, Final residual = 0.001946316, No Iterations 1
DILUPBiCGStab:  Solving for Uz, Initial residual = 0.02085283, Final residual = 0.001824692, No Iterations 1
GAMG:  Solving for p, Initial residual = 0.05665937, Final residual = 0.0005183767, No Iterations 2
GAMG:  Solving for p, Initial residual = 0.0005104154, Final residual = 3.593282e-06, No Iterations 4
time step continuity errors : sum local = 1.980386e-06, global = 1.109436e-06, cumulative = 5.562971e-05
ExecutionTime = 149.74 s  ClockTime = 150 s

Time = 72

DILUPBiCGStab:  Solving for Ux, Initial residual = 0.01793679, Final residual = 0.001743043, No Iterations 1
DILUPBiCGStab:  Solving for Uy, Initial residual = 0.02254174, Final residual = 0.001926202, No Iterations 1
DILUPBiCGStab:  Solving for Uz, Initial residual = 0.02065173, Final residual = 0.001793256, No Iterations 1
GAMG:  Solving for p, Initial residual = 0.05516072, Final residual = 0.0005088744, No Iterations 2
GAMG:  Solving for p, Initial residual = 0.0005013124, Final residual = 3.504823e-06, No Iterations 4
time step continuity errors : sum local = 1.929024e-06, global = 1.084838e-06, cumulative = 5.671455e-05
ExecutionTime = 151.42 s  ClockTime = 152 s

Time = 73

DILUPBiCGStab:  Solving for Ux, Initial residual = 0.01811351, Final residual = 0.001748453, No Iterations 1
DILUPBiCGStab:  Solving for Uy, Initial residual = 0.02246171, Final residual = 0.001905998, No Iterations 1
DILUPBiCGStab:  Solving for Uz, Initial residual = 0.02046051, Final residual = 0.001761342, No Iterations 1
GAMG:  Solving for p, Initial residual = 0.05378961, Final residual = 0.0004999958, No Iterations 2
GAMG:  Solving for p, Initial residual = 0.0004927189, Final residual = 3.425808e-06, No Iterations 4
time step continuity errors : sum local = 1.883392e-06, global = 1.060045e-06, cumulative = 5.777459e-05
ExecutionTime = 153.14 s  ClockTime = 154 s

Time = 74

DILUPBiCGStab:  Solving for Ux, Initial residual = 0.01828294, Final residual = 0.001752935, No Iterations 1
DILUPBiCGStab:  Solving for Uy, Initial residual = 0.0223913, Final residual = 0.001885509, No Iterations 1
DILUPBiCGStab:  Solving for Uz, Initial residual = 0.02028808, Final residual = 0.001729915, No Iterations 1
GAMG:  Solving for p, Initial residual = 0.05209649, Final residual = 0.0004923642, No Iterations 2
GAMG:  Solving for p, Initial residual = 0.0004853537, Final residual = 3.355074e-06, No Iterations 4
time step continuity errors : sum local = 1.841178e-06, global = 1.037063e-06, cumulative = 5.881165e-05
ExecutionTime = 154.91 s  ClockTime = 156 s

Time = 75

DILUPBiCGStab:  Solving for Ux, Initial residual = 0.0184597, Final residual = 0.001755653, No Iterations 1
DILUPBiCGStab:  Solving for Uy, Initial residual = 0.02233071, Final residual = 0.001864293, No Iterations 1
DILUPBiCGStab:  Solving for Uz, Initial residual = 0.02012457, Final residual = 0.001698692, No Iterations 1
GAMG:  Solving for p, Initial residual = 0.05049001, Final residual = 0.0004842192, No Iterations 2
GAMG:  Solving for p, Initial residual = 0.0004774407, Final residual = 3.273567e-06, No Iterations 4
time step continuity errors : sum local = 1.792301e-06, global = 1.008119e-06, cumulative = 5.981977e-05
ExecutionTime = 156.71 s  ClockTime = 157 s

Time = 76

DILUPBiCGStab:  Solving for Ux, Initial residual = 0.01864713, Final residual = 0.001757269, No Iterations 1
DILUPBiCGStab:  Solving for Uy, Initial residual = 0.02231507, Final residual = 0.00184591, No Iterations 1
DILUPBiCGStab:  Solving for Uz, Initial residual = 0.01998662, Final residual = 0.001669454, No Iterations 1
GAMG:  Solving for p, Initial residual = 0.04928322, Final residual = 0.000475513, No Iterations 2
GAMG:  Solving for p, Initial residual = 0.0004690909, Final residual = 3.191465e-06, No Iterations 4
time step continuity errors : sum local = 1.742832e-06, global = 9.777887e-07, cumulative = 6.079756e-05
ExecutionTime = 158.49 s  ClockTime = 159 s

Time = 77

DILUPBiCGStab:  Solving for Ux, Initial residual = 0.0188323, Final residual = 0.001758754, No Iterations 1
DILUPBiCGStab:  Solving for Uy, Initial residual = 0.02231557, Final residual = 0.001829082, No Iterations 1
DILUPBiCGStab:  Solving for Uz, Initial residual = 0.01985086, Final residual = 0.00164032, No Iterations 1
GAMG:  Solving for p, Initial residual = 0.04799232, Final residual = 0.0004680627, No Iterations 2
GAMG:  Solving for p, Initial residual = 0.0004619486, Final residual = 3.116945e-06, No Iterations 4
time step continuity errors : sum local = 1.696039e-06, global = 9.49865e-07, cumulative = 6.174743e-05
ExecutionTime = 160.47 s  ClockTime = 161 s

Time = 78

DILUPBiCGStab:  Solving for Ux, Initial residual = 0.01901721, Final residual = 0.001758276, No Iterations 1
DILUPBiCGStab:  Solving for Uy, Initial residual = 0.02234534, Final residual = 0.001812497, No Iterations 1
DILUPBiCGStab:  Solving for Uz, Initial residual = 0.01974032, Final residual = 0.001611499, No Iterations 1
GAMG:  Solving for p, Initial residual = 0.04685814, Final residual = 0.0004598349, No Iterations 2
GAMG:  Solving for p, Initial residual = 0.0004540624, Final residual = 3.039736e-06, No Iterations 4
time step continuity errors : sum local = 1.646775e-06, global = 9.185181e-07, cumulative = 6.266594e-05
ExecutionTime = 162.23 s  ClockTime = 163 s

Time = 79

DILUPBiCGStab:  Solving for Ux, Initial residual = 0.01919848, Final residual = 0.001757621, No Iterations 1
DILUPBiCGStab:  Solving for Uy, Initial residual = 0.02242013, Final residual = 0.001798124, No Iterations 1
DILUPBiCGStab:  Solving for Uz, Initial residual = 0.01963686, Final residual = 0.001584341, No Iterations 1
GAMG:  Solving for p, Initial residual = 0.04572583, Final residual = 0.0004519342, No Iterations 2
GAMG:  Solving for p, Initial residual = 0.0004465206, Final residual = 2.96872e-06, No Iterations 4
time step continuity errors : sum local = 1.600313e-06, global = 8.8948e-07, cumulative = 6.355542e-05
ExecutionTime = 163.98 s  ClockTime = 165 s

Time = 80

DILUPBiCGStab:  Solving for Ux, Initial residual = 0.0193683, Final residual = 0.001753701, No Iterations 1
DILUPBiCGStab:  Solving for Uy, Initial residual = 0.02253125, Final residual = 0.001785642, No Iterations 1
DILUPBiCGStab:  Solving for Uz, Initial residual = 0.01955348, Final residual = 0.001558073, No Iterations 1
GAMG:  Solving for p, Initial residual = 0.04450545, Final residual = 0.0004430043, No Iterations 2
GAMG:  Solving for p, Initial residual = 0.0004380106, Final residual = 2.894486e-06, No Iterations 4
time step continuity errors : sum local = 1.550761e-06, global = 8.561557e-07, cumulative = 6.441158e-05
ExecutionTime = 165.86 s  ClockTime = 167 s

Time = 81

DILUPBiCGStab:  Solving for Ux, Initial residual = 0.01951624, Final residual = 0.001747719, No Iterations 1
DILUPBiCGStab:  Solving for Uy, Initial residual = 0.02265557, Final residual = 0.001775368, No Iterations 1
DILUPBiCGStab:  Solving for Uz, Initial residual = 0.01947385, Final residual = 0.001532748, No Iterations 1
GAMG:  Solving for p, Initial residual = 0.04316164, Final residual = 0.0001151583, No Iterations 3
GAMG:  Solving for p, Initial residual = 0.0001138793, Final residual = 8.640292e-07, No Iterations 4
time step continuity errors : sum local = 4.598325e-07, global = 2.57704e-07, cumulative = 6.466928e-05
ExecutionTime = 167.96 s  ClockTime = 169 s

Time = 82

DILUPBiCGStab:  Solving for Ux, Initial residual = 0.01965815, Final residual = 0.001738003, No Iterations 1
DILUPBiCGStab:  Solving for Uy, Initial residual = 0.02281203, Final residual = 0.001765928, No Iterations 1
DILUPBiCGStab:  Solving for Uz, Initial residual = 0.0193993, Final residual = 0.001508391, No Iterations 1
GAMG:  Solving for p, Initial residual = 0.0422412, Final residual = 0.0001126327, No Iterations 3
GAMG:  Solving for p, Initial residual = 0.0001114799, Final residual = 8.428325e-07, No Iterations 4
time step continuity errors : sum local = 4.44806e-07, global = 2.46581e-07, cumulative = 6.491586e-05
ExecutionTime = 169.76 s  ClockTime = 171 s

Time = 83

DILUPBiCGStab:  Solving for Ux, Initial residual = 0.01976473, Final residual = 0.001724542, No Iterations 1
DILUPBiCGStab:  Solving for Uy, Initial residual = 0.02298028, Final residual = 0.001758335, No Iterations 1
DILUPBiCGStab:  Solving for Uz, Initial residual = 0.01932599, Final residual = 0.001485042, No Iterations 1
GAMG:  Solving for p, Initial residual = 0.04131667, Final residual = 0.0001099329, No Iterations 3
GAMG:  Solving for p, Initial residual = 0.0001089058, Final residual = 8.208137e-07, No Iterations 4
time step continuity errors : sum local = 4.291119e-07, global = 2.346469e-07, cumulative = 6.515051e-05
ExecutionTime = 171.57 s  ClockTime = 172 s

Time = 84

DILUPBiCGStab:  Solving for Ux, Initial residual = 0.01981611, Final residual = 0.001706973, No Iterations 1
DILUPBiCGStab:  Solving for Uy, Initial residual = 0.02315203, Final residual = 0.001750527, No Iterations 1
DILUPBiCGStab:  Solving for Uz, Initial residual = 0.01925243, Final residual = 0.001461116, No Iterations 1
GAMG:  Solving for p, Initial residual = 0.04004051, Final residual = 0.0001074928, No Iterations 3
GAMG:  Solving for p, Initial residual = 0.0001065777, Final residual = 8.020808e-07, No Iterations 4
time step continuity errors : sum local = 4.149793e-07, global = 2.24019e-07, cumulative = 6.537453e-05
ExecutionTime = 173.47 s  ClockTime = 174 s

Time = 85

DILUPBiCGStab:  Solving for Ux, Initial residual = 0.01984689, Final residual = 0.001683149, No Iterations 1
DILUPBiCGStab:  Solving for Uy, Initial residual = 0.02332837, Final residual = 0.001741005, No Iterations 1
DILUPBiCGStab:  Solving for Uz, Initial residual = 0.01918061, Final residual = 0.001437332, No Iterations 1
GAMG:  Solving for p, Initial residual = 0.0392464, Final residual = 0.0001051911, No Iterations 3
GAMG:  Solving for p, Initial residual = 0.0001043983, Final residual = 7.840034e-07, No Iterations 4
time step continuity errors : sum local = 4.007538e-07, global = 2.120863e-07, cumulative = 6.558662e-05
ExecutionTime = 175.32 s  ClockTime = 176 s

Time = 86

DILUPBiCGStab:  Solving for Ux, Initial residual = 0.0197997, Final residual = 0.001652509, No Iterations 1
DILUPBiCGStab:  Solving for Uy, Initial residual = 0.02348921, Final residual = 0.001730576, No Iterations 1
DILUPBiCGStab:  Solving for Uz, Initial residual = 0.01909852, Final residual = 0.001414646, No Iterations 1
GAMG:  Solving for p, Initial residual = 0.03834166, Final residual = 0.0001027986, No Iterations 3
GAMG:  Solving for p, Initial residual = 0.0001021318, Final residual = 7.65125e-07, No Iterations 4
time step continuity errors : sum local = 3.860154e-07, global = 1.991194e-07, cumulative = 6.578574e-05
ExecutionTime = 177.38 s  ClockTime = 178 s

Time = 87

DILUPBiCGStab:  Solving for Ux, Initial residual = 0.01968094, Final residual = 0.001614246, No Iterations 1
DILUPBiCGStab:  Solving for Uy, Initial residual = 0.02361652, Final residual = 0.001716663, No Iterations 1
DILUPBiCGStab:  Solving for Uz, Initial residual = 0.01900654, Final residual = 0.001391127, No Iterations 1
GAMG:  Solving for p, Initial residual = 0.03725092, Final residual = 0.0001001705, No Iterations 3
GAMG:  Solving for p, Initial residual = 9.963051e-05, Final residual = 7.426037e-07, No Iterations 4
time step continuity errors : sum local = 3.692425e-07, global = 1.845613e-07, cumulative = 6.59703e-05
ExecutionTime = 179.28 s  ClockTime = 180 s

Time = 88

DILUPBiCGStab:  Solving for Ux, Initial residual = 0.01948568, Final residual = 0.001567841, No Iterations 1
DILUPBiCGStab:  Solving for Uy, Initial residual = 0.02370021, Final residual = 0.001698041, No Iterations 1
DILUPBiCGStab:  Solving for Uz, Initial residual = 0.01890615, Final residual = 0.001367127, No Iterations 1
GAMG:  Solving for p, Initial residual = 0.03635034, Final residual = 9.74084e-05, No Iterations 3
GAMG:  Solving for p, Initial residual = 9.699613e-05, Final residual = 7.191271e-07, No Iterations 4
time step continuity errors : sum local = 3.517213e-07, global = 1.685717e-07, cumulative = 6.613887e-05
ExecutionTime = 181.09 s  ClockTime = 182 s

Time = 89

DILUPBiCGStab:  Solving for Ux, Initial residual = 0.01919986, Final residual = 0.00151418, No Iterations 1
DILUPBiCGStab:  Solving for Uy, Initial residual = 0.02372762, Final residual = 0.001674782, No Iterations 1
DILUPBiCGStab:  Solving for Uz, Initial residual = 0.018791, Final residual = 0.001342581, No Iterations 1
GAMG:  Solving for p, Initial residual = 0.03553504, Final residual = 9.45002e-05, No Iterations 3
GAMG:  Solving for p, Initial residual = 9.421949e-05, Final residual = 6.9526e-07, No Iterations 4
time step continuity errors : sum local = 3.340185e-07, global = 1.510331e-07, cumulative = 6.62899e-05
ExecutionTime = 183.07 s  ClockTime = 184 s

Time = 90

DILUPBiCGStab:  Solving for Ux, Initial residual = 0.01883032, Final residual = 0.001453666, No Iterations 1
DILUPBiCGStab:  Solving for Uy, Initial residual = 0.02367582, Final residual = 0.001644942, No Iterations 1
DILUPBiCGStab:  Solving for Uz, Initial residual = 0.01866006, Final residual = 0.001316385, No Iterations 1
GAMG:  Solving for p, Initial residual = 0.03464113, Final residual = 9.147644e-05, No Iterations 3
GAMG:  Solving for p, Initial residual = 9.132801e-05, Final residual = 6.739283e-07, No Iterations 4
time step continuity errors : sum local = 3.175949e-07, global = 1.318643e-07, cumulative = 6.642177e-05
ExecutionTime = 185.02 s  ClockTime = 186 s

Time = 91

DILUPBiCGStab:  Solving for Ux, Initial residual = 0.01838001, Final residual = 0.001386746, No Iterations 1
DILUPBiCGStab:  Solving for Uy, Initial residual = 0.02354193, Final residual = 0.001607194, No Iterations 1
DILUPBiCGStab:  Solving for Uz, Initial residual = 0.01850447, Final residual = 0.001288832, No Iterations 1
GAMG:  Solving for p, Initial residual = 0.03381169, Final residual = 8.894459e-05, No Iterations 3
GAMG:  Solving for p, Initial residual = 8.892747e-05, Final residual = 6.683911e-07, No Iterations 4
time step continuity errors : sum local = 3.08403e-07, global = 1.115677e-07, cumulative = 6.653333e-05
ExecutionTime = 186.91 s  ClockTime = 188 s

Time = 92

DILUPBiCGStab:  Solving for Ux, Initial residual = 0.01786335, Final residual = 0.001312383, No Iterations 1
DILUPBiCGStab:  Solving for Uy, Initial residual = 0.02329619, Final residual = 0.001562942, No Iterations 1
DILUPBiCGStab:  Solving for Uz, Initial residual = 0.01831792, Final residual = 0.001257143, No Iterations 1
GAMG:  Solving for p, Initial residual = 0.03304032, Final residual = 8.674942e-05, No Iterations 3
GAMG:  Solving for p, Initial residual = 8.686321e-05, Final residual = 6.852497e-07, No Iterations 4
time step continuity errors : sum local = 3.089471e-07, global = 8.51897e-08, cumulative = 6.661852e-05
ExecutionTime = 188.74 s  ClockTime = 190 s

Time = 93

DILUPBiCGStab:  Solving for Ux, Initial residual = 0.01726086, Final residual = 0.001233225, No Iterations 1
DILUPBiCGStab:  Solving for Uy, Initial residual = 0.02293195, Final residual = 0.001509304, No Iterations 1
DILUPBiCGStab:  Solving for Uz, Initial residual = 0.01808514, Final residual = 0.001221524, No Iterations 1
GAMG:  Solving for p, Initial residual = 0.03220109, Final residual = 0.0003219353, No Iterations 2
GAMG:  Solving for p, Initial residual = 0.0003227742, Final residual = 2.343028e-06, No Iterations 4
time step continuity errors : sum local = 1.030701e-06, global = 1.182862e-07, cumulative = 6.673681e-05
ExecutionTime = 190.57 s  ClockTime = 191 s

Time = 94

DILUPBiCGStab:  Solving for Ux, Initial residual = 0.01659489, Final residual = 0.001149009, No Iterations 1
DILUPBiCGStab:  Solving for Uy, Initial residual = 0.02243612, Final residual = 0.001444615, No Iterations 1
DILUPBiCGStab:  Solving for Uz, Initial residual = 0.01780332, Final residual = 0.001179567, No Iterations 1
GAMG:  Solving for p, Initial residual = 0.03153229, Final residual = 0.0003131087, No Iterations 2
GAMG:  Solving for p, Initial residual = 0.0003144141, Final residual = 2.528979e-06, No Iterations 4
time step continuity errors : sum local = 1.083453e-06, global = -7.745424e-08, cumulative = 6.665936e-05
ExecutionTime = 192.3 s  ClockTime = 193 s

Time = 95

DILUPBiCGStab:  Solving for Ux, Initial residual = 0.01585589, Final residual = 0.00106237, No Iterations 1
DILUPBiCGStab:  Solving for Uy, Initial residual = 0.02181135, Final residual = 0.001373395, No Iterations 1
DILUPBiCGStab:  Solving for Uz, Initial residual = 0.01744434, Final residual = 0.001130309, No Iterations 1
GAMG:  Solving for p, Initial residual = 0.03094442, Final residual = 0.0003052024, No Iterations 2
GAMG:  Solving for p, Initial residual = 0.0003069889, Final residual = 2.803076e-06, No Iterations 4
time step continuity errors : sum local = 1.167976e-06, global = -3.302549e-07, cumulative = 6.63291e-05
ExecutionTime = 193.99 s  ClockTime = 195 s

Time = 96

DILUPBiCGStab:  Solving for Ux, Initial residual = 0.01505548, Final residual = 0.0009752396, No Iterations 1
DILUPBiCGStab:  Solving for Uy, Initial residual = 0.02106249, Final residual = 0.001293314, No Iterations 1
DILUPBiCGStab:  Solving for Uz, Initial residual = 0.01699634, Final residual = 0.001074342, No Iterations 1
GAMG:  Solving for p, Initial residual = 0.03039682, Final residual = 0.0002984821, No Iterations 2
GAMG:  Solving for p, Initial residual = 0.0003007434, Final residual = 2.905055e-06, No Iterations 4
time step continuity errors : sum local = 1.175553e-06, global = -4.927018e-07, cumulative = 6.58364e-05
ExecutionTime = 195.83 s  ClockTime = 197 s

Time = 97

DILUPBiCGStab:  Solving for Ux, Initial residual = 0.01420288, Final residual = 0.0008902613, No Iterations 1
DILUPBiCGStab:  Solving for Uy, Initial residual = 0.02019822, Final residual = 0.001207485, No Iterations 1
DILUPBiCGStab:  Solving for Uz, Initial residual = 0.0164402, Final residual = 0.001011338, No Iterations 1
GAMG:  Solving for p, Initial residual = 0.02988837, Final residual = 0.0002921808, No Iterations 2
GAMG:  Solving for p, Initial residual = 0.0002948814, Final residual = 2.782152e-06, No Iterations 4
time step continuity errors : sum local = 1.09149e-06, global = -5.240168e-07, cumulative = 6.531238e-05
ExecutionTime = 197.58 s  ClockTime = 198 s

Time = 98

DILUPBiCGStab:  Solving for Ux, Initial residual = 0.01330776, Final residual = 0.0008076149, No Iterations 1
DILUPBiCGStab:  Solving for Uy, Initial residual = 0.01923648, Final residual = 0.00111782, No Iterations 1
DILUPBiCGStab:  Solving for Uz, Initial residual = 0.01577862, Final residual = 0.0009436265, No Iterations 1
GAMG:  Solving for p, Initial residual = 0.02938001, Final residual = 0.0002843764, No Iterations 2
GAMG:  Solving for p, Initial residual = 0.0002874645, Final residual = 2.601972e-06, No Iterations 4
time step continuity errors : sum local = 9.883827e-07, global = -4.989647e-07, cumulative = 6.481342e-05
ExecutionTime = 199.3 s  ClockTime = 200 s

Time = 99

DILUPBiCGStab:  Solving for Ux, Initial residual = 0.01238196, Final residual = 0.000726148, No Iterations 1
DILUPBiCGStab:  Solving for Uy, Initial residual = 0.0181888, Final residual = 0.001028018, No Iterations 1
DILUPBiCGStab:  Solving for Uz, Initial residual = 0.01500473, Final residual = 0.0008715493, No Iterations 1
GAMG:  Solving for p, Initial residual = 0.02895085, Final residual = 0.000275651, No Iterations 2
GAMG:  Solving for p, Initial residual = 0.00027907, Final residual = 2.45056e-06, No Iterations 4
time step continuity errors : sum local = 9.006553e-07, global = -4.613146e-07, cumulative = 6.43521e-05
ExecutionTime = 201.19 s  ClockTime = 202 s

Time = 100

DILUPBiCGStab:  Solving for Ux, Initial residual = 0.011439, Final residual = 0.0006456868, No Iterations 1
DILUPBiCGStab:  Solving for Uy, Initial residual = 0.0170762, Final residual = 0.0009380907, No Iterations 1
DILUPBiCGStab:  Solving for Uz, Initial residual = 0.01413235, Final residual = 0.0007953869, No Iterations 1
GAMG:  Solving for p, Initial residual = 0.02854078, Final residual = 0.0002694617, No Iterations 2
GAMG:  Solving for p, Initial residual = 0.0002731941, Final residual = 2.362407e-06, No Iterations 4
time step continuity errors : sum local = 8.393023e-07, global = -4.292668e-07, cumulative = 6.392284e-05
ExecutionTime = 202.97 s  ClockTime = 204 s

Time = 101

DILUPBiCGStab:  Solving for Ux, Initial residual = 0.01049551, Final residual = 0.0005679953, No Iterations 1
DILUPBiCGStab:  Solving for Uy, Initial residual = 0.01591853, Final residual = 0.0008495482, No Iterations 1
DILUPBiCGStab:  Solving for Uz, Initial residual = 0.01318393, Final residual = 0.0007173997, No Iterations 1
GAMG:  Solving for p, Initial residual = 0.02815717, Final residual = 0.0002647704, No Iterations 2
GAMG:  Solving for p, Initial residual = 0.000268788, Final residual = 2.314856e-06, No Iterations 4
time step continuity errors : sum local = 7.946974e-07, global = -4.037782e-07, cumulative = 6.351906e-05
ExecutionTime = 204.8 s  ClockTime = 206 s

Time = 102

DILUPBiCGStab:  Solving for Ux, Initial residual = 0.009564959, Final residual = 0.0004947898, No Iterations 1
DILUPBiCGStab:  Solving for Uy, Initial residual = 0.0147495, Final residual = 0.0007631962, No Iterations 1
DILUPBiCGStab:  Solving for Uz, Initial residual = 0.01219005, Final residual = 0.0006397198, No Iterations 1
GAMG:  Solving for p, Initial residual = 0.02773404, Final residual = 0.0002610012, No Iterations 2
GAMG:  Solving for p, Initial residual = 0.0002652595, Final residual = 2.29508e-06, No Iterations 4
time step continuity errors : sum local = 7.611532e-07, global = -3.839405e-07, cumulative = 6.313512e-05
ExecutionTime = 206.57 s  ClockTime = 207 s

Time = 103

DILUPBiCGStab:  Solving for Ux, Initial residual = 0.008671313, Final residual = 0.0004254326, No Iterations 1
DILUPBiCGStab:  Solving for Uy, Initial residual = 0.01359051, Final residual = 0.00068131, No Iterations 1
DILUPBiCGStab:  Solving for Uz, Initial residual = 0.01117651, Final residual = 0.0005654258, No Iterations 1
GAMG:  Solving for p, Initial residual = 0.02724893, Final residual = 0.0002577141, No Iterations 2
GAMG:  Solving for p, Initial residual = 0.0002621524, Final residual = 2.284631e-06, No Iterations 4
time step continuity errors : sum local = 7.319788e-07, global = -3.66711e-07, cumulative = 6.276841e-05
ExecutionTime = 208.3 s  ClockTime = 209 s

Time = 104

DILUPBiCGStab:  Solving for Ux, Initial residual = 0.007821237, Final residual = 0.0003579937, No Iterations 1
DILUPBiCGStab:  Solving for Uy, Initial residual = 0.01246259, Final residual = 0.0006043197, No Iterations 1
DILUPBiCGStab:  Solving for Uz, Initial residual = 0.01017677, Final residual = 0.0004942396, No Iterations 1
GAMG:  Solving for p, Initial residual = 0.02668853, Final residual = 0.0002552619, No Iterations 2
GAMG:  Solving for p, Initial residual = 0.0002598298, Final residual = 2.281458e-06, No Iterations 4
time step continuity errors : sum local = 7.062523e-07, global = -3.516893e-07, cumulative = 6.241672e-05
ExecutionTime = 210.02 s  ClockTime = 211 s

Time = 105

DILUPBiCGStab:  Solving for Ux, Initial residual = 0.007021069, Final residual = 0.0002985984, No Iterations 1
DILUPBiCGStab:  Solving for Uy, Initial residual = 0.01138141, Final residual = 0.0005250869, No Iterations 1
DILUPBiCGStab:  Solving for Uz, Initial residual = 0.009214123, Final residual = 0.0004259469, No Iterations 1
GAMG:  Solving for p, Initial residual = 0.02597073, Final residual = 0.0002513257, No Iterations 2
GAMG:  Solving for p, Initial residual = 0.0002559154, Final residual = 2.273787e-06, No Iterations 4
time step continuity errors : sum local = 6.805739e-07, global = -3.372373e-07, cumulative = 6.207948e-05
ExecutionTime = 211.89 s  ClockTime = 213 s

Time = 106

DILUPBiCGStab:  Solving for Ux, Initial residual = 0.006279189, Final residual = 0.0002428243, No Iterations 1
DILUPBiCGStab:  Solving for Uy, Initial residual = 0.01037504, Final residual = 0.0004489615, No Iterations 1
DILUPBiCGStab:  Solving for Uz, Initial residual = 0.008321382, Final residual = 0.0003623229, No Iterations 1
GAMG:  Solving for p, Initial residual = 0.02513038, Final residual = 0.0002461732, No Iterations 2
GAMG:  Solving for p, Initial residual = 0.0002506839, Final residual = 2.265017e-06, No Iterations 4
time step continuity errors : sum local = 6.560309e-07, global = -3.237391e-07, cumulative = 6.175574e-05
ExecutionTime = 213.72 s  ClockTime = 215 s

Time = 107

DILUPBiCGStab:  Solving for Ux, Initial residual = 0.005604646, Final residual = 0.0001894974, No Iterations 1
DILUPBiCGStab:  Solving for Uy, Initial residual = 0.00945274, Final residual = 0.0003779121, No Iterations 1
DILUPBiCGStab:  Solving for Uz, Initial residual = 0.007510673, Final residual = 0.00030591, No Iterations 1
GAMG:  Solving for p, Initial residual = 0.02414471, Final residual = 0.0002402361, No Iterations 2
GAMG:  Solving for p, Initial residual = 0.0002445902, Final residual = 2.249622e-06, No Iterations 4
time step continuity errors : sum local = 6.313264e-07, global = -3.104207e-07, cumulative = 6.144532e-05
ExecutionTime = 215.92 s  ClockTime = 217 s

Time = 108

DILUPBiCGStab:  Solving for Ux, Initial residual = 0.004999316, Final residual = 0.0001395332, No Iterations 1
DILUPBiCGStab:  Solving for Uy, Initial residual = 0.008641544, Final residual = 0.0003107317, No Iterations 1
DILUPBiCGStab:  Solving for Uz, Initial residual = 0.006788977, Final residual = 0.0002509949, No Iterations 1
GAMG:  Solving for p, Initial residual = 0.02308536, Final residual = 7.115151e-05, No Iterations 3
GAMG:  Solving for p, Initial residual = 7.247011e-05, Final residual = 6.963761e-07, No Iterations 4
time step continuity errors : sum local = 1.894611e-07, global = -9.075744e-08, cumulative = 6.135456e-05
ExecutionTime = 217.99 s  ClockTime = 219 s

Time = 109

DILUPBiCGStab:  Solving for Ux, Initial residual = 0.004458605, Final residual = 0.0001050734, No Iterations 1
DILUPBiCGStab:  Solving for Uy, Initial residual = 0.007909896, Final residual = 0.0002645476, No Iterations 1
DILUPBiCGStab:  Solving for Uz, Initial residual = 0.00616478, Final residual = 0.0002006777, No Iterations 1
GAMG:  Solving for p, Initial residual = 0.02200676, Final residual = 0.0002193112, No Iterations 2
GAMG:  Solving for p, Initial residual = 0.0002230839, Final residual = 2.096882e-06, No Iterations 4
time step continuity errors : sum local = 5.546833e-07, global = -2.713026e-07, cumulative = 6.108326e-05
ExecutionTime = 219.7 s  ClockTime = 221 s

Time = 110

DILUPBiCGStab:  Solving for Ux, Initial residual = 0.003972993, Final residual = 8.82719e-05, No Iterations 1
DILUPBiCGStab:  Solving for Uy, Initial residual = 0.007298562, Final residual = 0.0002104345, No Iterations 1
DILUPBiCGStab:  Solving for Uz, Initial residual = 0.005628748, Final residual = 0.0001672855, No Iterations 1
GAMG:  Solving for p, Initial residual = 0.02088416, Final residual = 0.0002047026, No Iterations 2
GAMG:  Solving for p, Initial residual = 0.0002080525, Final residual = 1.955428e-06, No Iterations 4
time step continuity errors : sum local = 5.035434e-07, global = -2.456136e-07, cumulative = 6.083765e-05
ExecutionTime = 221.4 s  ClockTime = 222 s

Time = 111

DILUPBiCGStab:  Solving for Ux, Initial residual = 0.003534793, Final residual = 7.842134e-05, No Iterations 1
DILUPBiCGStab:  Solving for Uy, Initial residual = 0.006753503, Final residual = 0.0001850082, No Iterations 1
DILUPBiCGStab:  Solving for Uz, Initial residual = 0.005165012, Final residual = 0.0001439349, No Iterations 1
GAMG:  Solving for p, Initial residual = 0.01969665, Final residual = 0.0001896814, No Iterations 2
GAMG:  Solving for p, Initial residual = 0.0001925863, Final residual = 1.810892e-06, No Iterations 4
time step continuity errors : sum local = 4.548216e-07, global = -2.214093e-07, cumulative = 6.061624e-05
ExecutionTime = 223.14 s  ClockTime = 224 s

Time = 112

DILUPBiCGStab:  Solving for Ux, Initial residual = 0.003148003, Final residual = 6.907004e-05, No Iterations 1
DILUPBiCGStab:  Solving for Uy, Initial residual = 0.006273285, Final residual = 0.0001556742, No Iterations 1
DILUPBiCGStab:  Solving for Uz, Initial residual = 0.00476153, Final residual = 0.0001225728, No Iterations 1
GAMG:  Solving for p, Initial residual = 0.01844342, Final residual = 0.0001770947, No Iterations 2
[...]
GAMG:  Solving for p, Initial residual = 1.67818e-05, Final residual = 4.731483e-07, No Iterations 3
time step continuity errors : sum local = 1.000462e-07, global = -4.75929e-08, cumulative = 5.831098e-05
ExecutionTime = 271.94 s  ClockTime = 273 s

Time = 137

DILUPBiCGStab:  Solving for Ux, Initial residual = 0.000243582, Final residual = 4.435236e-06, No Iterations 1
DILUPBiCGStab:  Solving for Uy, Initial residual = 0.0007691413, Final residual = 1.205368e-05, No Iterations 1
DILUPBiCGStab:  Solving for Uz, Initial residual = 0.0005431535, Final residual = 9.375802e-06, No Iterations 1
GAMG:  Solving for p, Initial residual = 0.001548826, Final residual = 1.515745e-05, No Iterations 2
GAMG:  Solving for p, Initial residual = 1.516067e-05, Final residual = 4.263036e-07, No Iterations 3
time step continuity errors : sum local = 9.010849e-08, global = -4.284021e-08, cumulative = 5.826814e-05
ExecutionTime = 273.66 s  ClockTime = 275 s

Time = 138

DILUPBiCGStab:  Solving for Ux, Initial residual = 0.0002205994, Final residual = 4.019826e-06, No Iterations 1
DILUPBiCGStab:  Solving for Uy, Initial residual = 0.0006988022, Final residual = 1.09301e-05, No Iterations 1
DILUPBiCGStab:  Solving for Uz, Initial residual = 0.0004928858, Final residual = 8.491716e-06, No Iterations 1
GAMG:  Solving for p, Initial residual = 0.001395295, Final residual = 1.369415e-05, No Iterations 2
GAMG:  Solving for p, Initial residual = 1.369661e-05, Final residual = 3.841909e-07, No Iterations 3
time step continuity errors : sum local = 8.118201e-08, global = -3.857563e-08, cumulative = 5.822956e-05
ExecutionTime = 275.41 s  ClockTime = 277 s

Time = 139

DILUPBiCGStab:  Solving for Ux, Initial residual = 0.0001997788, Final residual = 3.643188e-06, No Iterations 1
DILUPBiCGStab:  Solving for Uy, Initial residual = 0.0006345431, Final residual = 9.90871e-06, No Iterations 1
DILUPBiCGStab:  Solving for Uz, Initial residual = 0.0004470705, Final residual = 7.690324e-06, No Iterations 1
GAMG:  Solving for p, Initial residual = 0.001257242, Final residual = 1.237231e-05, No Iterations 2
GAMG:  Solving for p, Initial residual = 1.237419e-05, Final residual = 3.463183e-07, No Iterations 3
time step continuity errors : sum local = 7.316008e-08, global = -3.474667e-08, cumulative = 5.819482e-05
ExecutionTime = 277.13 s  ClockTime = 278 s

Time = 140

DILUPBiCGStab:  Solving for Ux, Initial residual = 0.0001809195, Final residual = 3.301715e-06, No Iterations 1
DILUPBiCGStab:  Solving for Uy, Initial residual = 0.0005759218, Final residual = 8.980915e-06, No Iterations 1
DILUPBiCGStab:  Solving for Uz, Initial residual = 0.000405361, Final residual = 6.964075e-06, No Iterations 1
GAMG:  Solving for p, Initial residual = 0.001133068, Final residual = 1.117812e-05, No Iterations 2
GAMG:  Solving for p, Initial residual = 1.117955e-05, Final residual = 3.122445e-07, No Iterations 3
time step continuity errors : sum local = 6.594714e-08, global = -3.130666e-08, cumulative = 5.816351e-05
ExecutionTime = 278.82 s  ClockTime = 280 s

Time = 141

DILUPBiCGStab:  Solving for Ux, Initial residual = 0.0001638389, Final residual = 2.992122e-06, No Iterations 1
DILUPBiCGStab:  Solving for Uy, Initial residual = 0.0005225075, Final residual = 8.138507e-06, No Iterations 1
DILUPBiCGStab:  Solving for Uz, Initial residual = 0.0003674263, Final residual = 6.305879e-06, No Iterations 1
GAMG:  Solving for p, Initial residual = 0.001021352, Final residual = 1.009904e-05, No Iterations 2
GAMG:  Solving for p, Initial residual = 1.010015e-05, Final residual = 9.030535e-07, No Iterations 2
time step continuity errors : sum local = 1.906911e-07, global = -9.343142e-08, cumulative = 5.807008e-05
ExecutionTime = 280.42 s  ClockTime = 282 s

Time = 142

DILUPBiCGStab:  Solving for Ux, Initial residual = 0.0001484271, Final residual = 2.712689e-06, No Iterations 1
DILUPBiCGStab:  Solving for Uy, Initial residual = 0.0004749093, Final residual = 7.392054e-06, No Iterations 1
DILUPBiCGStab:  Solving for Uz, Initial residual = 0.0003336478, Final residual = 5.716797e-06, No Iterations 1
GAMG:  Solving for p, Initial residual = 0.000921001, Final residual = 2.700656e-06, No Iterations 3
GAMG:  Solving for p, Initial residual = 2.700958e-06, Final residual = 8.26277e-07, No Iterations 1
time step continuity errors : sum local = 1.744467e-07, global = -8.524686e-08, cumulative = 5.798483e-05
ExecutionTime = 282.03 s  ClockTime = 283 s

Time = 143

DILUPBiCGStab:  Solving for Ux, Initial residual = 0.0001343959, Final residual = 2.457724e-06, No Iterations 1
DILUPBiCGStab:  Solving for Uy, Initial residual = 0.0004301879, Final residual = 6.689792e-06, No Iterations 1
DILUPBiCGStab:  Solving for Uz, Initial residual = 0.0003020083, Final residual = 5.173061e-06, No Iterations 1
GAMG:  Solving for p, Initial residual = 0.0008305565, Final residual = 2.440242e-06, No Iterations 3
GAMG:  Solving for p, Initial residual = 2.440478e-06, Final residual = 7.465031e-07, No Iterations 1
time step continuity errors : sum local = 1.575818e-07, global = -7.693562e-08, cumulative = 5.79079e-05
ExecutionTime = 283.63 s  ClockTime = 285 s

Time = 144

DILUPBiCGStab:  Solving for Ux, Initial residual = 0.0001216878, Final residual = 2.226544e-06, No Iterations 1
DILUPBiCGStab:  Solving for Uy, Initial residual = 0.0003894764, Final residual = 6.05163e-06, No Iterations 1
DILUPBiCGStab:  Solving for Uz, Initial residual = 0.0002732407, Final residual = 4.679778e-06, No Iterations 1
GAMG:  Solving for p, Initial residual = 0.0007490696, Final residual = 2.195312e-06, No Iterations 3
GAMG:  Solving for p, Initial residual = 2.195496e-06, Final residual = 6.712701e-07, No Iterations 1
time step continuity errors : sum local = 1.416828e-07, global = -6.915306e-08, cumulative = 5.783874e-05
ExecutionTime = 285.19 s  ClockTime = 286 s

Time = 145

DILUPBiCGStab:  Solving for Ux, Initial residual = 0.0001101975, Final residual = 2.01736e-06, No Iterations 1
DILUPBiCGStab:  Solving for Uy, Initial residual = 0.0003528196, Final residual = 5.478517e-06, No Iterations 1
DILUPBiCGStab:  Solving for Uz, Initial residual = 0.0002473579, Final residual = 4.235117e-06, No Iterations 1
GAMG:  Solving for p, Initial residual = 0.0006756856, Final residual = 1.976572e-06, No Iterations 3
GAMG:  Solving for p, Initial residual = 1.976716e-06, Final residual = 6.041544e-07, No Iterations 1
time step continuity errors : sum local = 1.27503e-07, global = -6.220936e-08, cumulative = 5.777653e-05
ExecutionTime = 286.76 s  ClockTime = 288 s

Time = 146

DILUPBiCGStab:  Solving for Ux, Initial residual = 9.980487e-05, Final residual = 1.828007e-06, No Iterations 1
DILUPBiCGStab:  Solving for Uy, Initial residual = 0.0003197541, Final residual = 4.962675e-06, No Iterations 1
DILUPBiCGStab:  Solving for Uz, Initial residual = 0.000224032, Final residual = 3.833904e-06, No Iterations 1
GAMG:  Solving for p, Initial residual = 0.0006096009, Final residual = 1.783064e-06, No Iterations 3
GAMG:  Solving for p, Initial residual = 1.783178e-06, Final residual = 5.448828e-07, No Iterations 1
time step continuity errors : sum local = 1.149831e-07, global = -5.606953e-08, cumulative = 5.772047e-05
ExecutionTime = 288.29 s  ClockTime = 290 s

Time = 147

DILUPBiCGStab:  Solving for Ux, Initial residual = 9.039821e-05, Final residual = 1.656466e-06, No Iterations 1
DILUPBiCGStab:  Solving for Uy, Initial residual = 0.0002898029, Final residual = 4.49611e-06, No Iterations 1
DILUPBiCGStab:  Solving for Uz, Initial residual = 0.0002029245, Final residual = 3.470988e-06, No Iterations 1
GAMG:  Solving for p, Initial residual = 0.0005500798, Final residual = 1.610245e-06, No Iterations 3
GAMG:  Solving for p, Initial residual = 1.610335e-06, Final residual = 4.920014e-07, No Iterations 1
time step continuity errors : sum local = 1.038151e-07, global = -5.059233e-08, cumulative = 5.766987e-05
ExecutionTime = 290.13 s  ClockTime = 291 s

Time = 148

DILUPBiCGStab:  Solving for Ux, Initial residual = 8.188105e-05, Final residual = 1.501008e-06, No Iterations 1
DILUPBiCGStab:  Solving for Uy, Initial residual = 0.0002626212, Final residual = 4.073066e-06, No Iterations 1
DILUPBiCGStab:  Solving for Uz, Initial residual = 0.0001837877, Final residual = 3.142286e-06, No Iterations 1
GAMG:  Solving for p, Initial residual = 0.0004964606, Final residual = 1.454455e-06, No Iterations 3
GAMG:  Solving for p, Initial residual = 1.454527e-06, Final residual = 4.44346e-07, No Iterations 1
time step continuity errors : sum local = 9.375262e-08, global = -4.56629e-08, cumulative = 5.762421e-05
ExecutionTime = 291.85 s  ClockTime = 293 s

Time = 149

DILUPBiCGStab:  Solving for Ux, Initial residual = 7.416926e-05, Final residual = 1.360132e-06, No Iterations 1
DILUPBiCGStab:  Solving for Uy, Initial residual = 0.0002379584, Final residual = 3.689486e-06, No Iterations 1
DILUPBiCGStab:  Solving for Uz, Initial residual = 0.0001664402, Final residual = 2.844575e-06, No Iterations 1
GAMG:  Solving for p, Initial residual = 0.0004481449, Final residual = 1.313572e-06, No Iterations 3
GAMG:  Solving for p, Initial residual = 1.313628e-06, Final residual = 4.012526e-07, No Iterations 1
time step continuity errors : sum local = 8.465485e-08, global = -4.121236e-08, cumulative = 5.7583e-05
ExecutionTime = 293.38 s  ClockTime = 295 s

Time = 150

DILUPBiCGStab:  Solving for Ux, Initial residual = 6.71873e-05, Final residual = 1.232493e-06, No Iterations 1
DILUPBiCGStab:  Solving for Uy, Initial residual = 0.0002156005, Final residual = 3.341961e-06, No Iterations 1
DILUPBiCGStab:  Solving for Uz, Initial residual = 0.000150727, Final residual = 2.575066e-06, No Iterations 1
GAMG:  Solving for p, Initial residual = 0.000404601, Final residual = 1.186264e-06, No Iterations 3
GAMG:  Solving for p, Initial residual = 1.186309e-06, Final residual = 3.623151e-07, No Iterations 1
time step continuity errors : sum local = 7.643557e-08, global = -3.719627e-08, cumulative = 5.75458e-05
ExecutionTime = 294.95 s  ClockTime = 296 s

Time = 151

DILUPBiCGStab:  Solving for Ux, Initial residual = 6.086637e-05, Final residual = 1.11686e-06, No Iterations 1
DILUPBiCGStab:  Solving for Uy, Initial residual = 0.0001953445, Final residual = 3.027268e-06, No Iterations 1
DILUPBiCGStab:  Solving for Uz, Initial residual = 0.0001365021, Final residual = 2.331174e-06, No Iterations 1
GAMG:  Solving for p, Initial residual = 0.0003653515, Final residual = 1.071388e-06, No Iterations 3
GAMG:  Solving for p, Initial residual = 1.071424e-06, Final residual = 3.271865e-07, No Iterations 1
time step continuity errors : sum local = 6.90212e-08, global = -3.357668e-08, cumulative = 5.751222e-05
ExecutionTime = 296.45 s  ClockTime = 298 s

Time = 152

DILUPBiCGStab:  Solving for Ux, Initial residual = 5.514372e-05, Final residual = 1.012109e-06, No Iterations 1
DILUPBiCGStab:  Solving for Uy, Initial residual = 0.000176997, Final residual = 2.742361e-06, No Iterations 1
DILUPBiCGStab:  Solving for Uz, Initial residual = 0.0001236269, Final residual = 2.11049e-06, No Iterations 1
GAMG:  Solving for p, Initial residual = 0.0003299664, Final residual = 9.678043e-07, No Iterations 3
GAMG:  Solving for p, Initial residual = 9.678329e-07, Final residual = 9.678329e-07, No Iterations 0
time step continuity errors : sum local = 2.041588e-07, global = -1.068973e-07, cumulative = 5.740533e-05
ExecutionTime = 297.83 s  ClockTime = 299 s

Time = 153

DILUPBiCGStab:  Solving for Ux, Initial residual = 5.002345e-05, Final residual = 9.185012e-07, No Iterations 1
DILUPBiCGStab:  Solving for Uy, Initial residual = 0.0001613543, Final residual = 2.499234e-06, No Iterations 1
DILUPBiCGStab:  Solving for Uz, Initial residual = 0.0001126406, Final residual = 1.916567e-06, No Iterations 1
GAMG:  Solving for p, Initial residual = 0.0002982592, Final residual = 9.145371e-07, No Iterations 3
GAMG:  Solving for p, Initial residual = 9.145631e-07, Final residual = 9.145631e-07, No Iterations 0
time step continuity errors : sum local = 1.92914e-07, global = -1.004093e-07, cumulative = 5.730492e-05
ExecutionTime = 299.19 s  ClockTime = 301 s

Time = 154

DILUPBiCGStab:  Solving for Ux, Initial residual = 4.530797e-05, Final residual = 8.320258e-07, No Iterations 1
DILUPBiCGStab:  Solving for Uy, Initial residual = 0.000145887, Final residual = 2.259749e-06, No Iterations 1
DILUPBiCGStab:  Solving for Uz, Initial residual = 0.0001018132, Final residual = 1.733896e-06, No Iterations 1
GAMG:  Solving for p, Initial residual = 0.00026953, Final residual = 8.315995e-07, No Iterations 3
GAMG:  Solving for p, Initial residual = 8.316207e-07, Final residual = 8.316207e-07, No Iterations 0
time step continuity errors : sum local = 1.754123e-07, global = -9.11994e-08, cumulative = 5.721372e-05
ExecutionTime = 300.58 s  ClockTime = 302 s

Time = 155

DILUPBiCGStab:  Solving for Ux, Initial residual = 4.102899e-05, Final residual = 7.534969e-07, No Iterations 1
DILUPBiCGStab:  Solving for Uy, Initial residual = 0.0001317197, Final residual = 2.040123e-06, No Iterations 1
DILUPBiCGStab:  Solving for Uz, Initial residual = 9.190003e-05, Final residual = 1.567259e-06, No Iterations 1
GAMG:  Solving for p, Initial residual = 0.0002435371, Final residual = 7.438496e-07, No Iterations 3
GAMG:  Solving for p, Initial residual = 7.438662e-07, Final residual = 7.438662e-07, No Iterations 0
time step continuity errors : sum local = 1.568975e-07, global = -8.164925e-08, cumulative = 5.713207e-05
ExecutionTime = 301.95 s  ClockTime = 303 s

Time = 156

DILUPBiCGStab:  Solving for Ux, Initial residual = 3.716847e-05, Final residual = 6.826613e-07, No Iterations 1
DILUPBiCGStab:  Solving for Uy, Initial residual = 0.0001191426, Final residual = 1.844883e-06, No Iterations 1
DILUPBiCGStab:  Solving for Uz, Initial residual = 8.309719e-05, Final residual = 1.417726e-06, No Iterations 1
GAMG:  Solving for p, Initial residual = 0.0002200667, Final residual = 6.661839e-07, No Iterations 3
GAMG:  Solving for p, Initial residual = 6.661969e-07, Final residual = 6.661969e-07, No Iterations 0
time step continuity errors : sum local = 1.405115e-07, global = -7.319362e-08, cumulative = 5.705888e-05
ExecutionTime = 303.46 s  ClockTime = 305 s

Time = 157

DILUPBiCGStab:  Solving for Ux, Initial residual = 3.368359e-05, Final residual = 6.187318e-07, No Iterations 1
DILUPBiCGStab:  Solving for Uy, Initial residual = 0.0001079605, Final residual = 1.67132e-06, No Iterations 1
DILUPBiCGStab:  Solving for Uz, Initial residual = 7.527179e-05, Final residual = 1.283684e-06, No Iterations 1
GAMG:  Solving for p, Initial residual = 0.0001988934, Final residual = 6.004474e-07, No Iterations 3
GAMG:  Solving for p, Initial residual = 6.004578e-07, Final residual = 6.004578e-07, No Iterations 0
time step continuity errors : sum local = 1.266429e-07, global = -6.598665e-08, cumulative = 5.699289e-05
ExecutionTime = 305.08 s  ClockTime = 306 s

Time = 158

DILUPBiCGStab:  Solving for Ux, Initial residual = 3.05303e-05, Final residual = 5.60881e-07, No Iterations 1
DILUPBiCGStab:  Solving for Uy, Initial residual = 9.789776e-05, Final residual = 1.515284e-06, No Iterations 1
DILUPBiCGStab:  Solving for Uz, Initial residual = 6.823362e-05, Final residual = 1.16288e-06, No Iterations 1
GAMG:  Solving for p, Initial residual = 0.0001797924, Final residual = 5.434484e-07, No Iterations 3
GAMG:  Solving for p, Initial residual = 5.434568e-07, Final residual = 5.434568e-07, No Iterations 0
time step continuity errors : sum local = 1.146183e-07, global = -5.970444e-08, cumulative = 5.693318e-05
ExecutionTime = 306.8 s  ClockTime = 308 s

Time = 159

DILUPBiCGStab:  Solving for Ux, Initial residual = 2.767274e-05, Final residual = 5.084406e-07, No Iterations 1
DILUPBiCGStab:  Solving for Uy, Initial residual = 8.87668e-05, Final residual = 1.3738e-06, No Iterations 1
DILUPBiCGStab:  Solving for Uz, Initial residual = 6.18512e-05, Final residual = 1.053505e-06, No Iterations 1
GAMG:  Solving for p, Initial residual = 0.0001625549, Final residual = 4.923039e-07, No Iterations 3
GAMG:  Solving for p, Initial residual = 4.923108e-07, Final residual = 4.923108e-07, No Iterations 0
time step continuity errors : sum local = 1.038292e-07, global = -5.406298e-08, cumulative = 5.687912e-05
ExecutionTime = 308.54 s  ClockTime = 310 s

Time = 160

DILUPBiCGStab:  Solving for Ux, Initial residual = 2.508239e-05, Final residual = 4.608889e-07, No Iterations 1
DILUPBiCGStab:  Solving for Uy, Initial residual = 8.046609e-05, Final residual = 1.245204e-06, No Iterations 1
DILUPBiCGStab:  Solving for Uz, Initial residual = 5.605211e-05, Final residual = 9.543195e-07, No Iterations 1
GAMG:  Solving for p, Initial residual = 0.0001469938, Final residual = 4.456865e-07, No Iterations 3
GAMG:  Solving for p, Initial residual = 4.456921e-07, Final residual = 4.456921e-07, No Iterations 0
time step continuity errors : sum local = 9.39956e-08, global = -4.892975e-08, cumulative = 5.683019e-05
ExecutionTime = 310.11 s  ClockTime = 311 s

Time = 161

DILUPBiCGStab:  Solving for Ux, Initial residual = 2.273488e-05, Final residual = 4.177836e-07, No Iterations 1
DILUPBiCGStab:  Solving for Uy, Initial residual = 7.293126e-05, Final residual = 1.128466e-06, No Iterations 1
DILUPBiCGStab:  Solving for Uz, Initial residual = 5.079029e-05, Final residual = 8.644185e-07, No Iterations 1
GAMG:  Solving for p, Initial residual = 0.0001329428, Final residual = 4.032169e-07, No Iterations 3
GAMG:  Solving for p, Initial residual = 4.032214e-07, Final residual = 4.032214e-07, No Iterations 0
time step continuity errors : sum local = 8.503727e-08, global = -4.426188e-08, cumulative = 5.678593e-05
ExecutionTime = 311.5 s  ClockTime = 313 s

Time = 162

DILUPBiCGStab:  Solving for Ux, Initial residual = 2.060798e-05, Final residual = 3.787217e-07, No Iterations 1
DILUPBiCGStab:  Solving for Uy, Initial residual = 6.610313e-05, Final residual = 1.022674e-06, No Iterations 1
DILUPBiCGStab:  Solving for Uz, Initial residual = 4.602375e-05, Final residual = 7.830087e-07, No Iterations 1
GAMG:  Solving for p, Initial residual = 0.0001202531, Final residual = 3.647337e-07, No Iterations 3
GAMG:  Solving for p, Initial residual = 3.647374e-07, Final residual = 3.647374e-07, No Iterations 0
time step continuity errors : sum local = 7.692009e-08, global = -4.00364e-08, cumulative = 5.674589e-05
ExecutionTime = 312.87 s  ClockTime = 314 s

Time = 163

DILUPBiCGStab:  Solving for Ux, Initial residual = 1.868104e-05, Final residual = 3.433273e-07, No Iterations 1
DILUPBiCGStab:  Solving for Uy, Initial residual = 5.991963e-05, Final residual = 9.268804e-07, No Iterations 1
DILUPBiCGStab:  Solving for Uz, Initial residual = 4.170883e-05, Final residual = 7.093253e-07, No Iterations 1
GAMG:  Solving for p, Initial residual = 0.0001087909, Final residual = 3.29986e-07, No Iterations 3
GAMG:  Solving for p, Initial residual = 3.29989e-07, Final residual = 3.29989e-07, No Iterations 0
time step continuity errors : sum local = 6.959105e-08, global = -3.622216e-08, cumulative = 5.670967e-05
ExecutionTime = 314.24 s  ClockTime = 316 s

Time = 164

DILUPBiCGStab:  Solving for Ux, Initial residual = 1.693511e-05, Final residual = 3.112538e-07, No Iterations 1
DILUPBiCGStab:  Solving for Uy, Initial residual = 5.431925e-05, Final residual = 8.401366e-07, No Iterations 1
DILUPBiCGStab:  Solving for Uz, Initial residual = 3.780227e-05, Final residual = 6.426351e-07, No Iterations 1
GAMG:  Solving for p, Initial residual = 9.843581e-05, Final residual = 2.986325e-07, No Iterations 3
GAMG:  Solving for p, Initial residual = 2.986349e-07, Final residual = 2.986349e-07, No Iterations 0
time step continuity errors : sum local = 6.297808e-08, global = -3.27805e-08, cumulative = 5.667689e-05
ExecutionTime = 315.57 s  ClockTime = 317 s


SIMPLE solution converged in 164 iterations

End

